209
frame 756 | Written by MDAnalysis XYZWriter (release 1.1.1)
      C1    20.72860   32.28435   20.17456
      C2    19.84611   31.34142   20.65289
      C3    21.95361   31.91870   19.57172
      C4    22.33431   30.54931   19.52884
      C5    21.42247   29.60297   20.04111
      C6    20.16350   30.00006   20.55592
      H7    18.86160   31.63018   20.99018
      H8    20.41549   33.31795   20.16862
      H9    22.64604   32.69688   19.28647
     H10    21.73669   28.57079   19.99348
     C11    23.68332   30.12322   19.00854
     O12    24.14063   30.54957   17.95973
     N13    24.35373   29.29583   19.83339
     N14    25.60574   28.99581   19.64530
     C15    26.40923   28.65336   20.68094
     C16    19.18427   28.95800   20.98114
     O17    18.02333   28.94629   20.55011
     N18    19.51194   28.16824   22.03172
     N19    18.61739   27.41358   22.59401
     C20    18.95339   26.81889   23.76008
     C21    17.92237   26.11604   24.54589
     H22    19.88754   26.95410   24.30521
     C23    18.29686   25.08974   25.39444
     C24    17.29684   24.31137   26.09856
     N25    15.95482   24.65612   25.89979
     C26    15.60531   25.65093   25.08134
     C27    16.55472   26.43488   24.41903
     H28    14.56813   25.85575   24.86068
     H29    16.22413   27.22671   23.76320
     C30    14.85319   23.81409   26.37859
     C31    27.77333   28.14011   20.43434
     H32    26.11668   28.69300   21.73020
     C33    28.17387   26.94106   21.02966
     C34    28.69744   28.87657   19.66186
     C35    30.00947   28.35774   19.54433
     N36    30.39832   27.28765   20.19281
     C37    29.51821   26.64216   21.00982
     H38    27.47557   26.41520   21.66389
     H39    29.83533   25.80626   21.61571
     C40    31.87510   26.88197   20.05048
     H41    23.96983   28.95490   20.70315
     H42    20.47489   28.18886   22.33572
     C43    32.30092   25.56344   20.70004
     H44    32.46392   27.74232   20.36858
     H45    32.12340   26.89005   18.98917
     C46    32.18433   24.39126   19.99054
     C47    32.66817   23.18509   20.58887
     C48    33.10069   23.08539   21.93958
     C49    33.26719   24.30755   22.61747
     C50    32.92516   25.54486   22.00761
     C51    15.23951   22.48309   26.93990
     H52    14.14436   23.68239   25.56108
     C53    15.53577   21.42222   26.06315
     C54    15.92524   20.16555   26.64588
     C55    16.03850   20.00667   28.06948
     C56    15.79225   21.09951   28.90018
     C57    15.30150   22.31666   28.34777
     C58    33.16698   26.83137   22.71755
     C59    31.89349   27.38299   23.44642
     H60    33.94772   26.71010   23.46843
     H61    33.51352   27.61802   22.04733
     H62    32.19740   28.15694   24.15122
     H63    31.35117   26.60253   23.98015
     H64    31.26201   27.92106   22.73945
     C65    31.64968   24.41111   18.57137
     C66    32.62523   24.49074   17.36349
     H67    30.88016   25.17802   18.48309
     H68    30.94039   23.58998   18.46769
     H69    33.32881   23.66270   17.44967
     H70    33.23299   25.38840   17.47717
     H71    32.04276   24.38375   16.44839
     C72    33.40574   21.74797   22.56104
     C73    34.94057   21.45729   22.31290
     H74    32.89608   20.90014   22.10329
     H75    33.00611   21.83026   23.57179
     H76    35.21633   20.54553   22.84276
     H77    35.63399   22.16813   22.76231
     H78    35.21224   21.24796   21.27826
     C79    15.44646   21.58921   24.56034
     C80    16.86814   21.60452   23.95053
     H81    14.93287   22.49623   24.24151
     H82    14.75679   20.85605   24.14211
     H83    17.36080   20.63231   23.93649
     H84    17.58113   22.26002   24.45062
     H85    16.73514   21.88488   22.90564
     C86    16.37918   18.63232   28.61405
     C87    17.77101   18.38938   29.15961
     H88    15.63805   18.35984   29.36544
     H89    16.14416   17.90779   27.83436
     H90    18.56000   18.47176   28.41207
     H91    17.86857   17.40907   29.62607
     H92    17.90475   19.08563   29.98753
     C93    14.80027   23.39306   29.27428
     C94    13.25817   23.37730   29.49494
     H95    15.15011   24.36870   28.93687
     H96    15.34208   23.42244   30.21962
     H97    12.61676   23.31717   28.61570
     H98    12.93982   24.28415   30.00912
     H99    13.11821   22.63579   30.28150
    H100    14.31403   24.45921   27.07230
    H101    30.62416   28.76214   18.75375
    H102    28.42964   29.76720   19.11281
    H103    17.53616   23.59767   26.87300
    H104    19.33776   24.80304   25.42152
    C105    33.81878   24.19802   24.07619
    N106    32.79353   24.52381   25.09726
    C107    33.11230   24.97319   26.33532
    C108    31.48854   24.06490   24.91038
    C109    32.10786   25.17029   27.32744
    C110    30.75669   24.78662   27.06270
    H111    34.10636   25.25770   26.64725
    C112    30.44790   24.22544   25.83018
    N113    29.56842   25.78335   28.99408
    H114    31.19200   23.66890   23.95035
    C115    29.71959   24.78219   28.07671
    H116    32.31379   25.66014   28.26768
    H117    29.45872   23.94650   25.49834
    H118    27.98623   24.82532   29.72819
    N119    28.53432   25.67337   29.75068
    H120    29.11427   23.87607   28.05161
    H121    18.12082   22.01985   29.20222
    C122    28.27625   26.61779   30.62322
    H123    20.23249   22.90453   30.28565
    O124    29.07740   27.52868   30.86341
    C125    18.23465   22.02726   30.27618
    H126    22.76739   24.59615   33.59744
    C127    19.43256   22.51690   30.89905
    C128    27.14906   26.40741   31.58766
    H129    26.03890   24.82666   30.58735
    C130    25.97119   25.61298   31.32460
    N131    22.69606   24.38871   32.61155
    N132    21.76575   23.52420   32.23362
    N133    17.23540   21.46275   31.04424
    C134    26.95758   27.29526   32.68429
    C135    19.49299   22.66536   32.32909
    H136    27.77606   27.99362   32.77797
    C137    24.86584   25.60060   32.16198
    C138    20.60852   23.39984   32.92213
    C139    23.70833   24.71502   31.78062
    C140    25.86257   27.31514   33.53320
    C141    17.35537   21.48179   32.39386
    C142    24.81988   26.42617   33.33628
    C143    18.43943   22.07910   33.04953
    H144    20.27402   24.07920   33.70615
    H145    25.71224   27.98871   34.36392
    O146    23.69148   24.29618   30.62492
    H147    16.58883   20.97704   32.96312
    H148    24.04309   26.51801   34.08097
    H149    18.52085   21.97716   34.12162
    C150    15.97721   20.93994   30.43572
    C151    32.74633   21.90098   19.78492
    N152    31.45574   21.11021   19.82059
    C153    31.40602   19.98419   19.05726
    C154    30.42365   21.40580   20.60747
    C155    30.23499   19.22938   19.02415
    C156    29.17184   19.54307   19.84756
    H157    32.30949   19.72094   18.52732
    C158    29.27288   20.64683   20.70512
    N159    27.97321   17.37928   19.37789
    H160    30.42461   22.27683   21.24600
    C161    27.91503   18.69563   19.69840
    H162    30.24697   18.30906   18.45912
    H163    28.48897   21.06465   21.31937
    H164    26.14340   17.14959   20.17176
    N165    26.86556   16.68886   19.63667
    H166    27.03671   19.25693   20.01716
    H167    18.56618   20.26831   26.18478
    C168    26.70370   15.36521   19.33523
    H169    20.82440   19.39234   25.47964
    O170    27.56723   14.79206   18.69851
    C171    18.65388   19.26904   25.78456
    H172    23.44939   16.18187   23.05168
    C173    19.93349   18.78211   25.46263
    C174    25.58269   14.51243   19.90364
    H175    24.46374   16.11338   20.86474
    C176    24.54222   15.04935   20.69717
    N177    22.55773   15.73298   22.89825
    N178    21.49306   15.96284   23.65395
    N179    17.54330   18.46335   25.56580
    C180    25.63427   13.11470   19.70187
    C181    20.06907   17.42523   25.01931
    H182    26.43112   12.67796   19.11818
    C183    23.56928   14.19956   21.29675
    C184    21.35516   16.93661   24.51570
    C185    22.43681   14.66929   22.10758
    C186    24.73514   12.23717   20.32170
    C187    17.69984   17.18443   25.10544
    C188    23.67595   12.82395   21.05679
    C189    18.93950   16.58336   24.87338
    H190    22.19833   17.62060   24.61226
    H191    24.82235   11.16097   20.29754
    O192    21.42318   13.98693   22.06710
    H193    16.82320   16.59212   24.88850
    H194    23.01457   12.08740   21.48861
    H195    19.10906   15.55799   24.57965
    C196    16.16849   18.92375   25.77531
    H197    15.85844   19.92836   30.82393
    H198    34.55354   24.97548   24.28547
    H199    15.79202   19.08257   24.76479
    H200    33.06001   22.17179   18.77676
    H201    33.60857   21.27533   20.01556
    H202    34.31648   23.26779   24.35020
    H203    15.16130   21.48147   30.91441
    H204    15.46404   18.14316   26.06256
      S1    27.75050   15.76164   25.40321
      O2    28.01733   14.36620   25.23161
      O3    28.90491   16.44062   24.81925
      O4    27.70231   16.07328   26.78710
      O5    26.54694   16.25278   24.78940

