209
frame 799 | Written by MDAnalysis XYZWriter (release 1.1.1)
      C1    21.15262   32.75441   20.08456
      C2    20.22754   31.78025   20.61155
      C3    22.49902   32.36164   19.91032
      C4    22.97369   31.09003   20.30158
      C5    22.01831   30.19624   20.93117
      C6    20.66942   30.52306   21.04108
      H7    19.19201   31.99090   20.83445
      H8    20.89837   33.72887   19.69447
      H9    23.07463   33.15738   19.46101
     H10    22.24637   29.15663   21.11447
     C11    24.45892   30.66752   20.05280
     O12    25.15204   31.41524   19.35933
     N13    24.85113   29.57039   20.68254
     N14    26.10919   29.18393   20.53206
     C15    26.41629   28.06534   21.19871
     C16    19.67159   29.54697   21.57726
     O17    18.66501   29.19592   20.92497
     N18    19.85341   29.11321   22.80561
     N19    18.99598   28.30143   23.32542
     C20    19.12661   27.94201   24.56429
     C21    18.07917   27.04860   25.16697
     H22    19.84237   28.36372   25.26993
     C23    18.41928   26.11086   26.15534
     C24    17.38085   25.35294   26.70518
     N25    16.07580   25.50965   26.35870
     C26    15.74289   26.32223   25.37866
     C27    16.72993   27.15370   24.82985
     H28    14.71594   26.35780   25.04621
     H29    16.43687   27.79773   24.01392
     C30    15.01023   24.81117   27.04954
     C31    27.81183   27.63411   21.24381
     H32    25.73595   27.27174   21.50762
     C33    28.08282   26.45561   21.98117
     C34    28.88528   28.38532   20.69971
     C35    30.22231   27.91982   20.93547
     N36    30.46816   26.81717   21.64608
     C37    29.43709   26.07110   22.15650
     H38    27.23700   25.96059   22.43497
     H39    29.56350   25.13635   22.68250
     C40    31.93493   26.47878   21.73083
     H41    24.21494   29.03017   21.25133
     H42    20.57247   29.54543   23.36796
     C43    32.35014   25.06544   22.28291
     H44    32.52487   27.21113   22.28194
     H45    32.19203   26.63450   20.68309
     C46    32.00941   23.94111   21.46543
     C47    32.15226   22.66604   21.99863
     C48    32.74288   22.44403   23.28557
     C49    33.00558   23.52939   24.12776
     C50    32.77865   24.88414   23.59330
     C51    15.48294   23.65773   28.01493
     H52    14.30842   24.31978   26.37568
     C53    15.78977   22.37083   27.44313
     C54    16.01205   21.25951   28.37556
     C55    16.18359   21.52546   29.74438
     C56    15.91199   22.82637   30.26318
     C57    15.57546   23.87314   29.43587
     C58    33.06763   26.09011   24.46103
     C59    31.71292   26.56827   25.06439
     H60    33.65818   25.85392   25.34623
     H61    33.44460   26.97936   23.95584
     H62    31.41913   26.00528   25.95029
     H63    30.86897   26.58906   24.37488
     H64    31.73378   27.57619   25.47882
     C65    31.47923   24.14335   20.13122
     C66    32.61296   23.88659   19.07594
     H67    31.09214   25.15314   19.99484
     H68    30.57171   23.54910   20.02465
     H69    33.35139   24.67922   19.19660
     H70    32.25410   23.92590   18.04746
     H71    33.05490   22.89284   19.14837
     C72    33.14113   21.05894   23.72413
     C73    34.59398   20.88839   23.61823
     H74    32.74173   20.20260   23.18075
     H75    32.89503   20.80723   24.75572
     H76    34.90210   19.87434   23.87295
     H77    35.22040   21.60758   24.14593
     H78    35.01315   21.03154   22.62228
     C79    15.87876   22.18468   25.96247
     C80    17.28133   22.21133   25.53159
     H81    15.56436   23.07073   25.41094
     H82    15.22031   21.38951   25.61282
     H83    17.32229   22.66753   24.54250
     H84    17.64677   21.18468   25.50803
     H85    17.95140   22.65335   26.26896
     C86    16.56035   20.41413   30.66706
     C87    17.87411   20.65983   31.43517
     H88    15.66881   20.13735   31.22979
     H89    16.71535   19.51863   30.06527
     H90    18.63797   21.09637   30.79172
     H91    18.28408   19.76564   31.90470
     H92    17.61426   21.23795   32.32194
     C93    15.32711   25.24048   30.01883
     C94    13.87133   25.45700   30.46716
     H95    15.74137   26.00761   29.36460
     H96    15.90340   25.43088   30.92422
     H97    13.69574   26.46129   30.85274
     H98    13.52559   24.70168   31.17289
     H99    13.17155   25.16622   29.68367
    H100    14.42109   25.53295   27.61528
    H101    31.06745   28.54261   20.68197
    H102    28.68772   29.31652   20.18958
    H103    17.63114   24.64645   27.48277
    H104    19.43661   25.97525   26.49156
    C105    33.42993   23.38707   25.54963
    N106    32.38827   23.58224   26.51266
    C107    32.76065   23.73489   27.79605
    C108    31.08458   23.63432   26.12267
    C109    31.81251   23.98099   28.74566
    C110    30.44280   24.00260   28.40643
    H111    33.83034   23.68542   27.93642
    C112    30.05314   23.78995   27.07564
    N113    28.99133   25.34545   29.74218
    H114    30.78704   23.67389   25.08522
    C115    29.37941   24.12060   29.47537
    H116    32.06424   24.05214   29.79350
    H117    29.01266   23.83360   26.78948
    H118    27.96600   24.78814   31.39945
    N119    28.11142   25.52749   30.72691
    H120    29.28075   23.16775   29.99542
    H121    18.39651   23.43991   30.77795
    C122    27.76781   26.78108   30.95075
    H123    20.43024   24.20105   32.05755
    O124    28.21481   27.75476   30.31450
    C125    18.32405   23.78353   31.79926
    H126    22.64456   26.51659   34.78491
    C127    19.45130   24.16626   32.51237
    C128    26.93570   26.96315   32.13254
    H129    25.92166   25.04719   32.12023
    C130    26.00672   26.00728   32.60746
    N131    22.79293   25.60344   34.37963
    N132    21.76033   24.82347   34.19489
    N133    17.05918   23.82006   32.35567
    C134    26.89312   28.28829   32.72921
    C135    19.32058   24.67603   33.82565
    H136    27.55070   29.10298   32.46413
    C137    25.01028   26.29114   33.54138
    C138    20.50842   25.25391   34.54022
    C139    23.95051   25.22096   33.84343
    C140    25.96015   28.61073   33.71627
    C141    16.88642   24.14450   33.66211
    C142    25.05443   27.60194   34.15936
    C143    18.02295   24.64462   34.38831
    H144    20.35874   26.26699   34.91354
    H145    25.93813   29.60383   34.14014
    O146    24.19882   24.12213   33.41351
    H147    15.93943   24.02411   34.16722
    H148    24.32333   27.79666   34.93005
    H149    17.86720   24.99188   35.39902
    C150    15.92510   23.09472   31.72020
    C151    31.92332   21.43099   21.09639
    N152    30.81558   20.58063   21.48400
    C153    30.80426   19.36835   20.88146
    C154    29.85917   20.97124   22.30885
    C155    29.68171   18.51959   21.04046
    C156    28.57303   18.91630   21.81479
    H157    31.69137   18.98792   20.39699
    C158    28.68301   20.16252   22.48990
    N159    27.44206   16.70619   21.94579
    H160    29.90654   21.85208   22.93197
    C161    27.40346   18.04737   22.12812
    H162    29.70431   17.53864   20.58921
    H163    27.89515   20.48173   23.15606
    H164    25.59325   16.54580   22.48616
    N165    26.35194   16.04399   22.04720
    H166    26.49291   18.64314   22.19188
    H167    18.60035   20.84577   27.94361
    C168    26.12561   14.74672   21.72504
    H169    20.73016   19.72771   27.19835
    O170    27.00877   14.02067   21.17762
    C171    18.63515   19.79239   27.70786
    H172    22.51577   16.21745   24.35962
    C173    19.78755   19.20061   27.19039
    C174    24.75103   14.20606   21.91762
    H175    24.21035   15.30765   23.64817
    C176    23.87892   14.56047   22.94227
    N177    21.69715   15.66728   24.57706
    N178    20.82882   16.01477   25.50131
    N179    17.42530   19.16988   27.71147
    C180    24.32566   13.19922   20.98549
    C181    19.70377   17.90150   26.70310
    H182    24.95605   12.88867   20.16538
    C183    22.57446   13.99374   23.02969
    C184    20.88906   17.23724   26.01638
    C185    21.64438   14.39193   24.12657
    C186    23.05629   12.59727   21.07392
    C187    17.34089   17.91335   27.23744
    C188    22.18732   12.98004   22.14325
    C189    18.47782   17.22449   26.73363
    H190    21.81062   17.81266   26.10432
    H191    22.66964   11.93056   20.31734
    O192    20.72536   13.59846   24.40814
    H193    16.37408   17.43595   27.17599
    H194    21.19919   12.54547   22.17700
    H195    18.32055   16.23957   26.31938
    C196    16.10414   19.84308   27.81755
    H197    15.69571   22.15198   32.21691
    H198    34.34334   23.91031   25.83247
    H199    15.62062   19.83153   26.84074
    H200    31.73187   21.66347   20.04881
    H201    32.85642   20.87068   21.03744
    H202    33.62559   22.33343   25.74881
    H203    14.99973   23.56423   32.05391
    H204    15.43728   19.22430   28.41799
      S1    26.86225   16.08914   27.74163
      O2    27.10317   14.67571   27.60730
      O3    28.08229   16.69914   27.32061
      O4    26.61412   16.46678   29.10259
      O5    25.87918   16.41382   26.78481

