209
frame 747 | Written by MDAnalysis XYZWriter (release 1.1.1)
      C1    21.05736   33.01502   20.54975
      C2    20.17655   32.02517   20.96244
      C3    22.38404   32.69250   20.23050
      C4    22.76762   31.37204   20.13282
      C5    21.83554   30.38180   20.52672
      C6    20.53843   30.70899   20.93359
      H7    19.16322   32.29376   21.22211
      H8    20.65222   34.01575   20.57826
      H9    23.07436   33.46674   19.92983
     H10    22.19196   29.37812   20.34788
     C11    24.17501   31.09494   19.74538
     O12    24.57530   31.75916   18.77517
     N13    24.83797   30.07936   20.37915
     N14    26.06390   29.71399   20.22186
     C15    26.39401   28.59974   20.87859
     C16    19.52761   29.61764   21.11514
     O17    18.40736   29.78145   20.68534
     N18    19.84167   28.66588   22.05342
     N19    18.89925   27.97952   22.69555
     C20    19.21544   27.20373   23.75540
     C21    18.10396   26.42228   24.42734
     H22    20.21304   26.88024   24.05248
     C23    18.44353   25.33828   25.17608
     C24    17.45098   24.49640   25.72400
     N25    16.15916   24.75397   25.54161
     C26    15.75104   25.79612   24.74093
     C27    16.69391   26.66567   24.17132
     H28    14.70515   25.83612   24.47465
     H29    16.33983   27.48005   23.55665
     C30    15.06065   24.02651   26.26200
     C31    27.77777   28.07995   20.74370
     H32    25.80291   28.03443   21.59908
     C33    28.19729   26.91060   21.40773
     C34    28.70273   28.77210   19.98033
     C35    29.96008   28.14411   19.71651
     N36    30.35217   27.00217   20.35830
     C37    29.47095   26.42643   21.23873
     H38    27.46916   26.38799   22.01031
     H39    29.72784   25.49865   21.72824
     C40    31.75085   26.59086   20.13034
     H41    24.39239   29.65158   21.17826
     H42    20.75681   28.67856   22.48057
     C43    32.15008   25.28445   20.86916
     H44    32.42995   27.40563   20.38146
     H45    31.91289   26.48065   19.05810
     C46    31.99471   24.03765   20.20984
     C47    32.19998   22.79265   20.89666
     C48    32.49987   22.87977   22.31395
     C49    32.69444   24.06462   22.96543
     C50    32.57476   25.28542   22.25944
     C51    15.32877   22.62551   26.77135
     H52    14.15665   24.03201   25.65302
     C53    15.40745   21.54748   25.82584
     C54    15.70268   20.22021   26.33184
     C55    15.75300   19.91614   27.75569
     C56    15.58645   21.00216   28.67760
     C57    15.35048   22.35429   28.18600
     C58    32.90457   26.64296   22.93469
     C59    31.84601   27.33455   23.77820
     H60    33.71120   26.52880   23.65887
     H61    33.43316   27.30373   22.24762
     H62    31.68514   26.73880   24.67670
     H63    30.93630   27.58948   23.23457
     H64    32.32659   28.29396   23.96968
     C65    31.70912   23.91018   18.72692
     C66    32.95673   23.95053   17.81962
     H67    31.00934   24.63496   18.31085
     H68    31.12873   23.00784   18.53452
     H69    33.72785   23.24932   18.13865
     H70    33.37404   24.95646   17.86501
     H71    32.74805   23.85128   16.75439
     C72    32.54663   21.56402   23.07331
     C73    33.91594   20.91665   23.05549
     H74    31.84279   20.83337   22.67475
     H75    32.25345   21.85628   24.08165
     H76    33.84136   19.96497   23.58165
     H77    34.67580   21.46080   23.61639
     H78    34.32398   20.63228   22.08558
     C79    15.28864   21.78717   24.37462
     C80    16.62935   21.72907   23.68662
     H81    14.67953   22.65005   24.10530
     H82    14.67333   21.03582   23.87967
     H83    17.07621   20.75051   23.86221
     H84    17.29506   22.52739   24.01469
     H85    16.57070   21.92592   22.61615
     C86    16.09103   18.48928   28.26626
     C87    17.47538   18.33096   28.87614
     H88    15.26601   18.17324   28.90466
     H89    16.11858   17.74247   27.47278
     H90    18.14896   18.53469   28.04374
     H91    17.65723   17.33040   29.26848
     H92    17.66883   19.08301   29.64105
     C93    15.21655   23.46366   29.21032
     C94    13.66399   23.73560   29.47747
     H95    15.81511   24.30582   28.86306
     H96    15.72054   23.35426   30.17060
     H97    13.14371   23.63727   28.52471
     H98    13.53265   24.78102   29.75663
     H99    13.14115   23.08957   30.18272
    H100    14.62265   24.61125   27.07092
    H101    30.61018   28.59795   18.98316
    H102    28.45210   29.63435   19.38024
    H103    17.70695   23.63035   26.31632
    H104    19.46789   25.03942   25.34273
    C105    33.12474   24.05655   24.43638
    N106    32.02227   24.20924   25.38522
    C107    32.42095   24.28396   26.71847
    C108    30.73739   24.28927   25.03755
    C109    31.49323   24.36583   27.74798
    C110    30.12934   24.36351   27.37232
    H111    33.47525   24.33030   26.94804
    C112    29.73403   24.27283   26.00290
    N113    29.05448   25.41396   29.42764
    H114    30.44579   24.23388   23.99914
    C115    29.12042   24.46344   28.49500
    H116    31.96036   24.41029   28.72071
    H117    28.75805   24.06908   25.58774
    H118    27.33667   24.60695   30.12888
    N119    28.00063   25.36092   30.23280
    H120    28.40162   23.64409   28.50553
    H121    17.93863   21.94205   29.15504
    C122    27.68790   26.25901   31.17441
    H123    19.85553   22.62337   30.40799
    O124    28.38789   27.24651   31.36092
    C125    17.85872   21.79250   30.22165
    H126    22.06038   24.52166   33.77092
    C127    18.98557   22.26477   30.93806
    C128    26.61077   25.90772   32.16324
    H129    25.45334   24.53606   30.97217
    C130    25.51050   25.07002   31.90919
    N131    22.20909   23.91421   32.97783
    N132    21.13177   23.39204   32.43554
    N133    16.76908   21.30833   30.89892
    C134    26.64475   26.53270   33.40734
    C135    18.93118   22.36154   32.34623
    H136    27.51289   27.09789   33.71278
    C137    24.48887   24.81372   32.85540
    C138    20.02156   23.10468   33.07444
    C139    23.46884   23.79893   32.46598
    C140    25.65420   26.23660   34.43550
    C141    16.76327   21.34657   32.26245
    C142    24.57851   25.37266   34.13347
    C143    17.87188   21.85088   33.01927
    H144    19.75361   23.34416   34.10349
    H145    25.86238   26.59848   35.43155
    O146    23.67626   23.27332   31.42208
    H147    16.02832   20.82987   32.86184
    H148    23.87231   25.10231   34.90456
    H149    17.92381   21.83146   34.09785
    C150    15.58531   20.78065   30.16822
    C151    32.17035   21.42159   20.21242
    N152    30.83478   20.71012   20.18377
    C153    30.83875   19.42100   19.74920
    C154    29.69017   21.27811   20.66051
    C155    29.66633   18.64716   19.74223
    C156    28.55954   19.15685   20.38531
    H157    31.72785   18.91446   19.40377
    C158    28.52876   20.47977   20.75311
    N159    27.24007   17.11889   19.95826
    H160    29.64378   22.35111   20.77420
    C161    27.30105   18.37507   20.43474
    H162    29.59558   17.66695   19.29437
    H163    27.57100   20.86396   21.07173
    H164    25.31945   16.85078   20.43940
    N165    26.22272   16.43244   20.26851
    H166    26.53853   18.83485   21.06344
    H167    18.34184   20.09591   25.75560
    C168    26.33111   15.10381   19.99787
    H169    20.42512   19.10525   25.13603
    O170    27.39535   14.56081   19.73006
    C171    18.27913   19.12823   25.28012
    H172    22.56941   15.79889   22.55063
    C173    19.51658   18.54662   24.96607
    C174    25.04465   14.37094   19.89032
    H175    24.27291   15.19465   21.66300
    C176    24.02202   14.51721   20.86018
    N177    21.73652   15.22874   22.51413
    N178    20.70671   15.59974   23.19738
    N179    17.10440   18.45585   25.10638
    C180    24.89492   13.43523   18.90445
    C181    19.53679   17.18455   24.57549
    H182    25.71349   13.17899   18.24818
    C183    22.77152   13.86688   20.74475
    C184    20.80335   16.55443   24.09960
    C185    21.67801   14.10784   21.76047
    C186    23.66360   12.79594   18.76950
    C187    17.13359   17.18324   24.70420
    C188    22.61376   12.99434   19.67297
    C189    18.31149   16.42913   24.50574
    H190    21.71399   17.07879   24.38921
    H191    23.50316   12.10555   17.95463
    O192    20.80766   13.27772   21.91722
    H193    16.19831   16.65972   24.57164
    H194    21.70945   12.43802   19.47517
    H195    18.25541   15.39248   24.20807
    C196    15.77057   19.04415   25.32297
    H197    15.40401   19.76391   30.51675
    H198    33.83544   24.86598   24.60319
    H199    15.34256   19.13441   24.32458
    H200    32.59623   21.45200   19.20952
    H201    32.95811   20.77971   20.60680
    H202    33.84447   23.25563   24.60557
    H203    14.75072   21.32347   30.61197
    H204    15.08859   18.30271   25.73922
      S1    26.82410   15.65913   25.88099
      O2    26.97896   14.29874   25.51578
      O3    28.05502   16.31122   25.48641
      O4    26.61234   15.85768   27.30028
      O5    25.68569   16.20398   25.21004

