222
frame 374 | Written by MDAnalysis XYZWriter (release 1.1.1)
      C1    26.02219   32.56616   20.49113
      C2    24.81076   31.96776   20.09619
      C3    27.16556   31.73033   20.52709
      C4    27.04484   30.36438   20.18206
      C5    25.81656   29.77673   19.82160
      C6    24.64835   30.60538   19.78837
      H7    23.98920   32.64922   19.93173
      H8    26.09767   33.64077   20.56804
      H9    28.14175   32.10719   20.79436
     H10    25.74382   28.70538   19.70620
     C11    28.29366   29.58238   20.21707
     O12    29.36934   30.08507   19.81565
     N13    28.24097   28.37121   20.68811
     N14    29.36913   27.70990   20.94021
     C15    29.19750   26.51661   21.51828
     C16    23.38091   29.96606   19.34674
     O17    23.48732   28.92248   18.63090
     N18    22.22550   30.40287   19.90386
     N19    21.09495   29.67493   19.89637
     C20    19.88919   30.23245   20.21179
     C21    18.75913   29.31854   20.49913
     H22    19.71970   31.13153   20.80427
     C23    18.52679   29.06575   21.84116
     C24    17.62333   28.13385   22.26842
     N25    16.75691   27.62848   21.34904
     C26    16.76368   27.97770   20.08831
     C27    17.81914   28.77132   19.62969
     H28    16.03602   27.52056   19.43415
     H29    17.81226   29.00146   18.57452
     C30    15.77654   26.64196   21.69031
     C31    30.34629   25.66825   21.71152
     H32    28.29735   26.08212   21.95307
     C33    30.22861   24.54953   22.51562
     C34    31.62045   25.98313   21.17603
     C35    32.68328   25.11182   21.35804
     N36    32.59840   24.08670   22.27463
     C37    31.35769   23.77763   22.86595
     H38    29.28638   24.28798   22.97408
     H39    31.26978   22.95122   23.55567
     C40    33.82601   23.39612   22.52774
     H41    27.33738   28.03325   20.98711
     H42    22.26955   31.26534   20.42762
     C43    33.76272   22.29299   23.52044
     H44    34.61996   24.11356   22.73514
     H45    34.08394   22.97701   21.55515
     C46    33.29082   20.98416   23.05094
     C47    33.12426   19.90371   23.96490
     C48    33.34836   20.16702   25.36198
     C49    33.90906   21.40168   25.79512
     C50    34.23041   22.43796   24.88887
     C51    15.99368   25.92874   22.99876
     H52    15.64790   25.92127   20.88274
     C53    16.79859   24.76796   23.07440
     C54    17.07692   24.10657   24.29023
     C55    16.48422   24.59388   25.49381
     C56    15.76600   25.81534   25.45779
     C57    15.47613   26.47194   24.25226
     C58    34.89202   23.72626   25.28094
     C59    33.84013   24.84739   25.37684
     H60    35.44655   23.55339   26.20329
     H61    35.64455   23.98388   24.53567
     H62    33.22022   24.88927   24.48126
     H63    34.26963   25.84229   25.49433
     H64    33.17990   24.52388   26.18154
     C65    32.94625   20.73976   21.60777
     C66    34.17034   20.29119   20.76244
     H67    32.44433   21.59870   21.16235
     H68    32.17900   19.98892   21.41892
     H69    35.07647   20.89661   20.78489
     H70    33.80894   20.18087   19.74003
     H71    34.47687   19.28718   21.05587
     C72    32.98956   19.05659   26.33866
     C73    34.24302   18.16689   26.57679
     H74    32.21694   18.40301   25.93370
     H75    32.63146   19.57210   27.22980
     H76    34.71410   17.90755   25.62867
     H77    34.00905   17.25984   27.13412
     H78    34.88841   18.73212   27.24917
     C79    17.43587   24.18783   21.83659
     C80    18.82161   24.75116   21.49411
     H81    16.81998   24.24965   20.93939
     H82    17.59800   23.13567   22.07062
     H83    18.75961   25.72034   20.99919
     H84    19.36798   24.09239   20.81912
     H85    19.40773   24.88961   22.40262
     C86    16.46544   23.68364   26.69468
     C87    17.51591   23.92729   27.76827
     H88    15.46695   23.69960   27.13155
     H89    16.63433   22.69282   26.27295
     H90    18.50199   24.16886   27.37154
     H91    17.62958   23.10501   28.47469
     H92    17.21138   24.83823   28.28358
     C93    14.61732   27.75116   24.22803
     C94    13.16236   27.35873   24.16744
     H95    14.82160   28.40495   23.38013
     H96    14.81303   28.44280   25.04744
     H97    12.95726   26.73380   23.29824
     H98    12.56272   28.26547   24.08776
     H99    12.88197   26.86514   25.09795
    H100    14.78907   27.10233   21.72304
    H101    33.53239   25.18375   20.69454
    H102    31.67104   26.77344   20.44170
    H103    17.69254   27.82194   23.30008
    H104    19.07467   29.58525   22.61339
    C105    34.12820   21.55884   27.30841
    N106    32.95227   22.07969   27.99772
    C107    33.14955   22.51126   29.24860
    C108    31.72664   22.16670   27.36006
    C109    32.08040   23.16418   29.86553
    C110    30.86618   23.27536   29.26810
    H111    34.09895   22.36115   29.74104
    C112    30.64378   22.78544   28.00125
    N113    29.04516   24.91830   29.50336
    H114    31.47935   21.66877   26.43414
    C115    29.74283   23.91369   30.02574
    H116    32.27039   23.56346   30.85086
    H117    29.64406   22.74989   27.59420
    H118    27.79789   24.96082   31.16350
    N119    28.02925   25.36357   30.26664
    H120    29.55748   23.41934   30.97935
    H121    17.46646   27.58235   26.19918
    C122    27.15488   26.34312   29.93631
    H123    19.23003   28.16635   27.65174
    O124    27.15011   26.95786   28.84786
    C125    17.27587   27.49595   27.25871
    H126    21.59084   27.15621   31.37089
    C127    18.35817   27.75382   28.13762
    C128    26.03763   26.82298   30.88595
    H129    24.78640   27.68916   29.34732
    C130    24.93711   27.59043   30.41219
    N131    21.58490   28.03064   30.86548
    N132    20.46208   28.29203   30.23896
    N133    16.15009   26.94321   27.73929
    C134    26.15079   26.60404   32.25800
    C135    18.29445   27.38051   29.50787
    H136    26.96604   26.02319   32.66345
    C137    23.86548   27.97171   31.25084
    C138    19.41392   27.48146   30.44377
    C139    22.71007   28.68321   30.66402
    C140    25.11980   27.02990   33.10842
    C141    15.96778   26.74748   29.10170
    C142    23.96687   27.71047   32.65544
    C143    17.05084   26.92793   29.94464
    H144    19.54177   26.54482   30.98640
    H145    25.21663   26.82420   34.16422
    O146    22.85108   29.67570   29.98333
    H147    15.00303   26.52589   29.53362
    H148    23.16366   27.91477   33.34792
    H149    16.85597   26.84707   31.00384
    C150    15.18297   26.35967   26.78426
    C151    32.80243   18.52412   23.44049
    N152    31.38964   18.07024   23.30414
    C153    31.18070   16.75568   23.09936
    C154    30.30211   18.90632   23.36483
    C155    29.92805   16.14308   22.98623
    C156    28.79810   16.98659   23.11568
    H157    32.01743   16.07430   23.05456
    C158    28.99745   18.38704   23.25139
    N159    27.02415   15.56038   22.20855
    H160    30.41051   19.97370   23.48872
    C161    27.40310   16.52158   23.04622
    H162    29.87874   15.09070   22.74860
    H163    28.21268   19.12570   23.32149
    H164    25.07139   15.78255   22.78209
    N165    25.76998   15.18844   22.35889
    H166    26.78326   16.95222   23.83264
    H167    20.05877   21.37486   24.82180
    C168    25.29253   14.07227   21.77697
    H169    20.16064   19.09238   23.89202
    O170    25.95872   13.17240   21.23863
    C171    19.21954   20.92813   24.30943
    H172    19.59967   15.67997   22.45163
    C173    19.22466   19.61710   23.76954
    C174    23.82604   13.93879   21.71269
    H175    23.43082   15.95992   20.93031
    C176    23.03842   15.01785   21.28376
    N177    19.60524   16.25173   21.61907
    N178    19.09197   17.47971   21.61679
    N179    18.08737   21.70794   24.11803
    C180    23.29223   12.69917   21.91220
    C181    18.07630   19.09211   23.10613
    H182    23.95773   11.91071   22.23134
    C183    21.60233   14.87675   21.22038
    C184    18.13987   17.71465   22.49308
    C185    20.69873   16.03255   20.86268
    C186    21.90563   12.48923   21.69124
    C187    16.96334   21.22244   23.58718
    C188    21.06673   13.58789   21.36482
    C189    16.93374   19.93029   22.99551
    H190    17.80609   16.97285   23.21864
    H191    21.41380   11.53085   21.76875
    O192    21.05813   16.83353   19.97199
    H193    16.11511   21.88922   23.63544
    H194    20.00517   13.41069   21.27492
    H195    16.02967   19.51912   22.57123
    C196    18.28293   23.18241   24.47112
    H197    14.65208   25.54785   27.28145
    H198    34.94856   22.21722   27.59416
    H199    18.78453   23.29378   25.43241
    H200    33.36668   18.35218   22.52388
    H201    33.31577   17.77456   24.04278
    H202    34.38476   20.65512   27.86120
    H203    14.31690   27.00600   26.64182
    H204    19.03877   23.64227   23.83445
      P1    22.02342   30.96833   26.12411
      O2    23.12426   30.47626   25.05868
      O3    21.41430   29.74195   26.79420
      H4    21.52310   29.82502   27.72418
      O5    20.91122   31.76000   25.43872
      O6    22.74687   31.88822   27.06754
      P1    28.00386   21.91669   17.26322
      O2    29.20983   22.13035   16.25678
      O3    27.68034   20.47434   17.45114
      H4    28.01878   20.17833   18.27663
      O5    26.85516   22.72042   16.59037
      O6    28.27297   22.64227   18.56667
      P1    22.93834   26.42874   24.48062
      O2    23.59760   27.22597   25.67271
      O3    22.23677   25.20823   25.06125
      H4    22.74594   24.45518   24.82194
      O5    23.93784   25.99863   23.36067
      O6    21.91272   27.33052   23.81854

