222
frame 696 | Written by MDAnalysis XYZWriter (release 1.1.1)
      C1    25.62548   33.77453   17.84183
      C2    24.51028   33.05931   18.36329
      C3    26.91593   33.10596   17.79133
      C4    27.01354   31.75092   18.22066
      C5    25.82257   31.02207   18.51880
      C6    24.55726   31.68061   18.58851
      H7    23.62800   33.67849   18.43114
      H8    25.53197   34.78241   17.46523
      H9    27.85178   33.60544   17.58857
     H10    25.89136   29.98543   18.81386
     C11    28.39295   31.13178   18.47751
     O12    29.28136   31.41674   17.68453
     N13    28.52259   30.15638   19.43013
     N14    29.51957   29.37510   19.33499
     C15    29.61557   28.22242   20.02000
     C16    23.27055   30.89860   18.81005
     O17    23.29921   29.69906   18.55422
     N18    22.17437   31.50383   19.23117
     N19    21.13138   30.76034   19.44662
     C20    20.00737   31.30666   19.95586
     C21    18.94899   30.37334   20.43607
     H22    19.94170   32.31633   20.36128
     C23    19.11548   29.68518   21.64813
     C24    18.09576   28.88942   22.17770
     N25    16.95556   28.67995   21.52754
     C26    16.71418   29.35502   20.39251
     C27    17.67472   30.27548   19.88298
     H28    15.76172   29.29297   19.88717
     H29    17.41672   30.79730   18.97329
     C30    15.95477   27.69940   21.99055
     C31    30.65790   27.27579   19.85498
     H32    28.76249   27.74870   20.50574
     C33    30.64178   25.99549   20.45091
     C34    31.70396   27.54298   18.92905
     C35    32.72814   26.60411   18.84516
     N36    32.81916   25.49815   19.62705
     C37    31.74341   25.14493   20.33183
     H38    29.79643   25.72107   21.06450
     H39    31.73883   24.17957   20.81604
     C40    33.92952   24.44286   19.45012
     H41    27.99211   30.10412   20.28801
     H42    22.08884   32.49760   19.38994
     C43    34.14618   23.58511   20.69154
     H44    34.85688   24.95284   19.18929
     H45    33.58057   23.87386   18.58840
     C46    33.68535   22.23895   20.71016
     C47    33.94285   21.43982   21.84900
     C48    34.46007   21.99221   23.06902
     C49    34.77087   23.39082   23.13259
     C50    34.68279   24.14522   21.92085
     C51    16.47644   26.69596   23.01444
     H52    15.30831   27.21599   21.25808
     C53    17.37007   25.70274   22.53848
     C54    18.17151   24.92249   23.46240
     C55    18.00164   25.08612   24.87339
     C56    17.07154   26.07338   25.37664
     C57    16.33182   26.86722   24.45490
     C58    35.17433   25.54361   21.83771
     C59    34.58056   26.64767   22.67264
     H60    36.25238   25.56448   21.99735
     H61    35.07915   25.90745   20.81465
     H62    34.76506   26.68303   23.74633
     H63    33.50489   26.68550   22.50061
     H64    35.02786   27.55793   22.27334
     C65    33.00416   21.64844   19.47078
     C66    34.02058   21.32119   18.34710
     H67    32.28542   22.41795   19.18905
     H68    32.40477   20.77390   19.72378
     H69    34.58874   20.45174   18.67780
     H70    34.75002   22.12510   18.24842
     H71    33.61728   21.15188   17.34871
     C72    34.65938   21.12992   24.30371
     C73    36.11172   20.64600   24.45060
     H74    34.04794   20.22769   24.28944
     H75    34.29093   21.65835   25.18297
     H76    36.84361   21.45120   24.51466
     H77    36.33859   20.01147   23.59387
     H78    36.28560   20.09109   25.37252
     C79    17.52726   25.41636   21.07280
     C80    18.64800   26.22236   20.29024
     H81    16.55144   25.55627   20.60770
     H82    17.74878   24.35439   20.96671
     H83    18.56157   27.30099   20.42132
     H84    18.60666   25.99382   19.22527
     H85    19.66527   25.89218   20.50060
     C86    18.86081   24.22776   25.72547
     C87    20.23926   24.68357   26.11363
     H88    18.34046   24.05921   26.66830
     H89    18.84812   23.20222   25.35640
     H90    21.02822   24.59194   25.36713
     H91    20.60558   24.13200   26.97948
     H92    20.22411   25.75220   26.32787
     C93    15.27761   27.88432   24.94323
     C94    13.81851   27.35507   24.77692
     H95    15.41932   28.82032   24.40292
     H96    15.40801   28.16845   25.98743
     H97    13.47456   26.54800   25.42380
     H98    13.60760   26.89997   23.80919
     H99    13.17120   28.18006   25.07439
    H100    15.19711   28.30682   22.48561
    H101    33.57380   26.82962   18.21239
    H102    31.87074   28.47214   18.40440
    H103    18.29711   28.43706   23.13751
    H104    20.06771   29.72930   22.15578
    C105    35.17439   24.00635   24.41045
    N106    34.13961   24.58005   25.26478
    C107    34.58040   25.23915   26.36738
    C108    32.79071   24.54207   24.99826
    C109    33.71037   25.80798   27.30487
    C110    32.37619   25.74922   27.04797
    H111    35.62105   25.29936   26.64991
    C112    31.92091   25.19634   25.84966
    N113    30.79459   27.46518   27.71805
    H114    32.36300   24.10449   24.10832
    C115    31.33972   26.25790   27.96294
    H116    34.11255   26.22507   28.21629
    H117    30.84973   25.09394   25.75757
    H118    29.63773   27.34372   29.32676
    N119    29.75710   27.72628   28.39967
    H120    30.99753   25.45912   28.62095
    H121    18.91558   27.79604   25.80205
    C122    28.97302   28.75597   28.00045
    H123    20.49997   29.28315   27.02625
    O124    28.96836   29.24130   26.88042
    C125    18.84603   27.89111   26.87561
    H126    23.37185   29.04297   30.10981
    C127    19.70186   28.77851   27.55042
    C128    27.92873   29.25743   28.97041
    H129    26.55188   29.69779   27.40816
    C130    26.64251   29.64378   28.48299
    N131    23.13297   29.77727   29.45877
    N132    21.95097   29.86271   28.95934
    N133    18.01014   27.11068   27.58496
    C134    28.09337   29.21613   30.42151
    C135    19.80091   28.67910   28.94322
    H136    29.02894   28.90268   30.86066
    C137    25.58036   30.02059   29.29088
    C138    20.93175   29.34874   29.67749
    C139    24.20268   30.37472   28.80385
    C140    27.06452   29.61917   31.21868
    C141    17.97349   27.12479   28.90636
    C142    25.82328   29.97900   30.65053
    C143    18.85717   27.92683   29.63668
    H144    20.89232   29.03059   30.71928
    H145    27.20402   29.67358   32.28825
    O146    24.04389   31.04522   27.76221
    H147    17.34414   26.38479   29.37828
    H148    25.15109   30.43819   31.36026
    H149    18.89405   27.75215   30.70182
    C150    16.96223   26.29364   26.86480
    C151    33.66191   19.92061   21.75260
    N152    32.26005   19.54128   22.03631
    C153    32.09208   18.22047   22.38358
    C154    31.20793   20.36005   22.30458
    C155    30.85783   17.62482   22.64517
    C156    29.72664   18.40161   22.77558
    H157    32.95412   17.59945   22.18962
    C158    29.93127   19.81717   22.52040
    N159    28.18696   16.54900   23.22612
    H160    31.25181   21.43451   22.20456
    C161    28.33572   17.83978   23.06018
    H162    30.68907   16.56033   22.71432
    H163    29.10172   20.47901   22.72093
    H164    26.30327   16.79433   23.82211
    N165    27.02812   16.11028   23.65850
    H166    27.63437   18.63666   23.30751
    H167    21.31731   22.80377   23.44621
    C168    26.68348   14.81304   23.88760
    H169    21.61452   20.33051   23.88681
    O170    27.47865   13.88684   23.88758
    C171    20.50778   22.08952   23.41613
    H172    20.82209   16.48110   24.86734
    C173    20.61250   20.70506   23.73829
    C174    25.23716   14.54987   24.20600
    H175    24.63990   15.96623   22.79606
    C176    24.25801   15.27815   23.53572
    N177    21.10304   16.79996   23.95110
    N178    20.55681   17.85888   23.40433
    N179    19.34276   22.67654   23.16352
    C180    24.80441   13.60450   25.20868
    C181    19.49037   19.90568   23.73071
    H182    25.49931   13.01846   25.79182
    C183    22.91955   15.11966   23.84894
    C184    19.54650   18.46385   23.97598
    C185    21.95437   16.10737   23.19207
    C186    23.44344   13.39852   25.50341
    C187    18.20697   21.92579   23.20986
    C188    22.54095   14.25372   24.86116
    C189    18.26861   20.53765   23.44906
    H190    19.30285   18.20734   25.00697
    H191    23.18990   12.79351   26.36136
    O192    22.10450   16.36355   22.01278
    H193    17.28670   22.36907   22.85912
    H194    21.52907   14.26770   25.23840
    H195    17.33298   20.00950   23.33934
    C196    19.37401   24.12637   22.94901
    H197    17.03733   25.28959   27.28238
    H198    35.95704   24.71449   24.13822
    H199    20.30822   24.50895   23.36009
    H200    33.83748   19.53038   20.75010
    H201    34.37575   19.38567   22.37900
    H202    35.76776   23.31385   25.00748
    H203    15.97034   26.60875   27.18878
    H204    19.54573   24.32887   21.89184
      P1    24.56378   32.11922   23.83403
      O2    25.46766   31.35079   22.84125
      O3    23.75542   31.11620   24.66430
      H4    23.79755   31.40858   25.55668
      O5    23.58238   33.04448   23.05903
      O6    25.43670   33.04524   24.73871
      P1    29.30245   22.72743   14.83605
      O2    30.81875   23.11600   14.46641
      O3    29.15891   21.19954   15.04315
      H4    28.29269   20.92041   15.27843
      O5    28.42831   23.19253   13.69824
      O6    28.91300   23.55701   16.11756
      P1    24.86571   27.12920   23.01781
      O2    25.82019   27.91341   23.91611
      O3    23.98976   26.12725   23.78842
      H4    24.02612   26.09559   24.72718
      O5    25.62176   26.41335   21.81757
      O6    23.98319   28.28925   22.43596

