222
frame 688 | Written by MDAnalysis XYZWriter (release 1.1.1)
      C1    24.92887   34.11543   17.98470
      C2    23.82351   33.32812   17.86031
      C3    26.16942   33.54409   18.18146
      C4    26.32021   32.16142   18.28845
      C5    25.17012   31.34579   18.21945
      C6    23.90073   31.94928   18.04650
      H7    22.86536   33.78395   17.65887
      H8    24.79539   35.17408   17.81787
      H9    27.05254   34.16488   18.21491
     H10    25.16540   30.27378   18.35045
     C11    27.70189   31.60037   18.51306
     O12    28.61745   32.16987   17.92785
     N13    27.81423   30.41594   19.18865
     N14    28.84542   29.67234   19.03988
     C15    28.95427   28.68124   19.95899
     C16    22.74788   31.03136   18.06159
     O17    22.84070   29.87011   17.60015
     N18    21.72876   31.47920   18.77777
     N19    20.69241   30.69286   19.09163
     C20    19.46794   31.16858   19.34542
     C21    18.46794   30.26665   19.89475
     H22    19.17865   32.21856   19.38951
     C23    18.69531   29.67018   21.15022
     C24    17.69384   28.77364   21.65512
     N25    16.59421   28.55238   21.01824
     C26    16.29942   29.22980   19.83887
     C27    17.23223   30.08168   19.26330
     H28    15.34401   29.10268   19.35160
     H29    17.01002   30.55886   18.32025
     C30    15.56874   27.64561   21.57308
     C31    30.04379   27.62790   19.85194
     H32    28.16363   28.32409   20.61886
     C33    29.84772   26.30905   20.25076
     C34    31.32710   28.00944   19.43189
     C35    32.34887   27.07756   19.36392
     N36    32.14539   25.77711   19.69468
     C37    30.95068   25.40131   20.11952
     H38    28.85333   26.07058   20.59824
     H39    30.69801   24.40177   20.44118
     C40    33.24489   24.75835   19.59166
     H41    27.04846   29.96461   19.66824
     H42    21.72771   32.41080   19.16792
     C43    33.37517   23.92465   20.86661
     H44    34.19658   25.23404   19.35480
     H45    33.12545   24.05303   18.76925
     C46    32.75029   22.62584   20.91109
     C47    32.83693   21.85551   22.14308
     C48    33.38498   22.49226   23.31015
     C49    33.96443   23.79095   23.24913
     C50    33.96100   24.52236   22.03152
     C51    16.03682   26.64283   22.61714
     H52    15.19017   27.07290   20.72644
     C53    16.76569   25.51313   22.19899
     C54    17.52780   24.90027   23.17003
     C55    17.41996   25.17753   24.58479
     C56    16.49313   26.19114   25.01207
     C57    15.79649   26.93891   24.02066
     C58    34.45066   25.93856   22.00590
     C59    33.52211   26.95866   22.57972
     H60    35.41775   26.03679   22.49904
     H61    34.63464   26.23079   20.97204
     H62    33.45716   26.98606   23.66744
     H63    32.51546   26.71741   22.23832
     H64    33.74902   27.97846   22.26888
     C65    32.10990   21.93771   19.75455
     C66    33.08167   21.11919   18.88782
     H67    31.58916   22.69577   19.16950
     H68    31.31359   21.27988   20.10277
     H69    32.66912   20.80818   17.92803
     H70    33.52934   20.21177   19.29316
     H71    33.95846   21.74492   18.72104
     C72    33.23591   21.77580   24.60438
     C73    34.45751   20.98166   24.95702
     H74    32.28352   21.24859   24.66010
     H75    33.22819   22.53697   25.38455
     H76    35.28086   21.68889   25.05711
     H77    34.78539   20.26896   24.20028
     H78    34.20498   20.37227   25.82476
     C79    16.70246   25.11178   20.75855
     C80    17.80151   25.85492   19.94300
     H81    15.67631   25.16583   20.39498
     H82    16.84949   24.03194   20.73778
     H83    18.06925   25.07405   19.23120
     H84    18.69890   26.15601   20.48349
     H85    17.44455   26.70006   19.35443
     C86    18.18708   24.35734   25.59319
     C87    19.49037   24.96413   26.14032
     H88    17.53649   24.20045   26.45356
     H89    18.39256   23.36163   25.20021
     H90    20.23292   25.16053   25.36692
     H91    19.91585   24.29738   26.89033
     H92    19.31122   25.88927   26.68817
     C93    14.77626   27.98622   24.42061
     C94    13.31685   27.33451   24.52286
     H95    14.87703   28.91631   23.86124
     H96    14.95203   28.24777   25.46406
     H97    13.36343   26.50987   25.23414
     H98    12.98053   27.08503   23.51651
     H99    12.59871   28.02630   24.96310
    H100    14.74296   28.21557   21.99890
    H101    33.32320   27.36321   18.99582
    H102    31.50285   29.05170   19.21006
    H103    17.91222   28.30542   22.60353
    H104    19.58574   29.86428   21.72975
    C105    34.45167   24.42175   24.52885
    N106    33.45294   24.97631   25.45491
    C107    33.84915   25.48401   26.61820
    C108    32.15184   25.13520   25.10492
    C109    32.97525   26.10003   27.52777
    C110    31.61811   26.20343   27.21287
    H111    34.89470   25.46520   26.88817
    C112    31.25677   25.74032   25.95558
    N113    29.80335   27.94823   27.62519
    H114    31.72125   24.83589   24.16078
    C115    30.52610   26.87234   28.08027
    H116    33.39619   26.48694   28.44402
    H117    30.24805   25.73341   25.56977
    H118    28.76071   27.94478   29.31861
    N119    28.89645   28.48478   28.47594
    H120    30.36409   26.34790   29.02198
    H121    17.94379   28.41039   25.40653
    C122    28.06753   29.49581   28.22925
    H123    19.35103   29.93816   26.58775
    O124    28.01134   30.07570   27.12938
    C125    17.88525   28.37770   26.48445
    H126    22.18041   29.88628   30.53716
    C127    18.68837   29.34241   27.19797
    C128    26.99848   29.84838   29.29059
    H129    25.49620   30.25191   27.77910
    C130    25.69863   30.24783   28.83995
    N131    22.15051   30.30594   29.61896
    N132    21.10887   30.28364   28.82387
    N133    17.03234   27.56968   27.12816
    C134    27.18829   29.81757   30.70799
    C135    18.72922   29.28154   28.60563
    H136    28.15202   29.65685   31.16821
    C137    24.64689   30.56423   29.69344
    C138    19.87019   29.92328   29.34978
    C139    23.30915   30.77032   29.08355
    C140    26.12183   30.17777   31.52000
    C141    17.02221   27.53947   28.48589
    C142    24.84400   30.58791   31.05695
    C143    17.92288   28.30459   29.23651
    H144    19.77364   29.63861   30.39751
    H145    26.38771   30.28331   32.56142
    O146    23.34682   31.43709   28.03055
    H147    16.34435   26.89776   29.02914
    H148    24.00753   30.74801   31.72110
    H149    17.94526   28.15436   30.30577
    C150    16.26171   26.50579   26.50807
    C151    32.54642   20.36042   22.16842
    N152    31.22536   20.04208   22.78173
    C153    31.14154   18.81925   23.29353
    C154    30.10195   20.82204   22.56146
    C155    29.91445   18.30691   23.83689
    C156    28.74014   19.01415   23.63195
    H157    32.01704   18.20908   23.45964
    C158    28.87849   20.29482   22.97523
    N159    27.17166   17.11184   24.17109
    H160    30.16553   21.75531   22.02168
    C161    27.39223   18.46892   24.08673
    H162    29.85821   17.31400   24.25803
    H163    27.98919   20.89698   22.86135
    H164    25.17870   17.41420   24.33407
    N165    25.92820   16.75136   24.47192
    H166    26.62135   19.23791   24.13659
    H167    20.61732   22.37547   22.37689
    C168    25.69492   15.44693   24.61834
    H169    20.86427   20.07907   23.07852
    O170    26.61390   14.63600   24.70923
    C171    19.74918   21.87731   22.78254
    H172    20.03835   16.55996   24.63271
    C173    19.88825   20.53863   23.12928
    C174    24.25446   15.06047   24.69833
    H175    23.52289   16.54480   23.30179
    C176    23.29729   15.63642   23.84064
    N177    20.04472   16.56599   23.62275
    N178    19.51962   17.62832   23.06566
    N179    18.54505   22.55673   22.83459
    C180    23.89912   13.79396   25.28150
    C181    18.75297   19.86776   23.45775
    H182    24.70542   13.21797   25.71104
    C183    21.97119   15.12862   23.76673
    C184    18.85263   18.47227   23.83331
    C185    20.96080   15.83636   22.93728
    C186    22.56220   13.31156   25.27397
    C187    17.43580   21.89883   23.24833
    C188    21.61168   13.90588   24.41501
    C189    17.53243   20.55846   23.55613
    H190    18.88766   18.26105   24.90207
    H191    22.36369   12.35725   25.73902
    O192    21.11124   15.78765   21.73635
    H193    16.52199   22.47294   23.29018
    H194    20.58350   13.61291   24.56802
    H195    16.69641   19.93482   23.83638
    C196    18.67857   24.01922   22.74050
    H197    16.42341   25.60248   27.09628
    H198    35.23075   25.17823   24.43461
    H199    19.60749   24.33812   23.21328
    H200    32.62849   19.95627   21.15944
    H201    33.32560   19.76326   22.64210
    H202    35.10968   23.70790   25.02435
    H203    15.20321   26.59692   26.75174
    H204    18.94807   24.30241   21.72302
      P1    24.04850   32.16669   23.68375
      O2    24.99002   31.47600   22.65370
      O3    23.48143   31.12949   24.63842
      H4    23.20576   31.48269   25.46477
      O5    22.93604   32.91818   22.90532
      O6    24.83549   33.18979   24.55292
      P1    28.32402   21.73347   15.14674
      O2    29.69758   22.13151   14.54243
      O3    28.09196   20.26291   14.74967
      H4    27.28036   19.94339   15.10011
      O5    27.28963   22.70708   14.50683
      O6    28.36475   21.89823   16.73502
      P1    24.15458   27.23582   22.88569
      O2    25.00162   28.04763   23.94832
      O3    23.12757   26.28435   23.52625
      H4    23.32753   26.09839   24.42571
      O5    25.10962   26.47163   21.87156
      O6    23.47974   28.38099   22.01937

