183
frame 670 | Written by MDAnalysis XYZWriter (release 1.1.1)
      C1    21.69545   28.66591   19.64873
      O2    22.11141   28.97180   20.79074
      N3    20.50259   28.17743   19.37705
      N4    22.42337   28.93381   18.57158
      N5    19.72274   27.82417   20.35149
      C6    18.66393   27.06466   20.02509
      C7    17.92683   26.26835   21.02448
      H8    18.40420   26.67144   19.04223
      H9    20.11371   28.26901   18.44943
     N10    23.66488   29.25674   18.76440
     H11    22.14415   28.82163   17.60745
     C12    24.44392   29.52316   17.66744
     C13    25.95684   29.58780   17.88157
     H14    24.29187   29.38176   16.59739
     C15    18.54152   25.77568   22.17242
     C16    16.51829   26.09993   21.01683
     C17    17.86785   25.06138   23.17456
     N18    16.51526   24.76230   23.06587
     C19    15.83223   25.33748   22.00918
     H20    19.60171   25.90665   22.33130
     H21    18.44382   24.74460   24.03148
     H22    15.89042   26.63612   20.32064
     H23    14.75602   25.27230   21.94664
     C24    15.81358   23.80817   23.96268
     C25    16.66769   23.12399   24.98788
     H26    15.20261   23.10267   23.39957
     H27    15.03714   24.27791   24.56648
     C28    17.10772   21.77911   24.80667
     C29    17.78625   21.12380   25.89624
     C30    17.97462   21.85411   27.09170
     C31    17.55024   23.22710   27.23482
     C32    16.90583   23.86419   26.17593
     C33    26.79367   30.27448   17.01454
     C34    26.51389   29.12556   19.09565
     C35    27.88721   29.26865   19.35482
     C36    28.15385   30.40903   17.34795
     N37    28.68834   29.83519   18.44275
     H38    26.35338   30.68903   16.11972
     H39    28.78534   30.90718   16.62720
     H40    25.94897   28.68291   19.90269
     H41    28.28754   29.10628   20.34465
     C42    30.15720   29.91890   18.55879
     C43    30.83168   29.24169   19.77887
     H44    30.39807   30.98194   18.56449
     H45    30.55235   29.49308   17.63650
     C46    30.97143   27.88566   19.74381
     C47    31.52522   27.15009   20.81779
     C48    32.01110   27.82501   21.95198
     C49    31.82556   29.24094   21.96932
     C50    31.29077   29.96175   20.88910
     H51    17.49042   23.24871   29.34751
     C52    17.71472   23.94602   28.54032
     N53    19.09808   24.50706   28.74621
     O54    25.23477   28.56805   27.52389
     C55    19.39393   24.97525   29.95716
     C56    20.03953   24.56336   27.81137
     H57    18.66443   25.04057   30.75086
     C58    20.54682   25.65631   30.28380
     C59    21.37556   24.98336   28.17356
     C60    21.61728   25.67854   29.36298
     C61    25.69890   27.97071   28.47460
     N62    23.68604   26.89935   28.93338
     C63    22.97684   26.18143   29.76876
     H64    17.04724   24.78126   28.75236
     H65    20.74578   26.03934   31.27380
     H66    28.26971   28.48182   25.07864
     N67    24.96205   27.08676   29.17225
     H68    22.16623   24.88642   27.44429
     C69    29.31327   28.71116   25.23605
     N70    27.00909   28.00065   28.74954
     N71    27.84253   28.48345   27.88773
     H72    29.61345   29.16892   23.19100
     C73    30.09467   29.11941   24.15660
     C74    29.16480   28.37756   27.78573
     H75    33.25299   29.58162   23.44110
     C76    29.85846   28.71608   26.55725
     H77    27.40511   27.38489   29.44532
     H78    23.41203   25.47872   30.47932
     H79    25.33241   26.46187   29.87399
     N80    31.38008   29.51827   24.31655
     C81    32.25202   29.94353   23.20616
     H82    29.76430   27.83312   28.51532
     C83    31.19319   29.18160   26.70239
     C84    31.95052   29.43522   25.56609
     H85    31.60915   29.24232   27.69723
     H86    33.02008   29.53075   25.68142
     H87    32.26371   31.03341   23.21739
     H88    19.86818   24.15751   26.82531
     H89    18.22840   19.25282   26.72784
     C90    18.28395   19.70301   25.73670
     N91    19.58099   19.45380   25.03102
     O92    26.83873   20.15101   23.94975
     C93    20.04078   18.17755   24.88936
     C94    20.36253   20.44577   24.55379
     H95    19.58606   17.34797   25.41035
     C96    21.15866   17.85867   24.11691
     C97    21.60244   20.20098   23.93329
     C98    22.01346   18.85098   23.60110
     C99    26.65616   19.51501   22.91865
    N100    24.43431   19.10505   23.30071
    C101    23.29321   18.54888   22.84438
    H102    17.56129   19.03720   25.26495
    H103    21.46617   16.83472   23.96403
    H104    27.71535   24.08972   21.86736
    N105    25.52342   18.83479   22.64484
    H106    22.28991   20.92767   23.52623
    C107    28.70616   23.94121   21.46406
    N108    27.67017   19.31950   22.02354
    N109    28.44155   20.32733   21.64893
    H110    29.35335   26.01725   21.40615
    C111    29.67030   24.99598   21.25471
    C112    28.16025   21.62629   21.79091
    C113    29.13784   22.63478   21.28768
    H114    27.47972   18.67291   21.27137
    H115    23.21681   17.72352   22.13655
    H116    25.51946   18.19409   21.86408
    N117    30.89588   24.71257   20.77980
    C118    31.95593   25.73654   20.55533
    H119    27.26639   22.14174   22.14225
    C120    30.43589   22.37254   20.77276
    C121    31.30286   23.45156   20.49267
    H122    30.78194   21.35564   20.66067
    H123    32.18644   23.23414   19.91094
    H124    20.04964   21.45661   24.76989
    C125    30.55460   27.10791   18.52640
    C126    31.57780   27.13459   17.42383
    H127    29.60910   27.56329   18.23185
    H128    30.31406   26.05103   18.64145
    H129    32.12142   28.07617   17.34635
    H130    31.20990   26.96317   16.41221
    H131    32.35717   26.37315   17.45383
    C132    31.13442   31.44589   21.01093
    C133    29.84594   31.82754   21.87379
    H134    32.01847   31.93829   21.41602
    H135    31.05745   31.93302   20.03888
    H136    29.94850   32.88430   22.12043
    H137    29.55909   31.26398   22.76161
    H138    29.03262   31.61045   21.18134
    C139    32.87284   27.02806   22.96700
    C140    31.94006   26.12352   23.81919
    H141    33.63918   26.50126   22.39839
    H142    33.33230   27.69222   23.69905
    H143    31.28664   26.65045   24.51453
    H144    32.56735   25.57121   24.51888
    H145    31.37328   25.43688   23.19038
    C146    16.75511   21.02664   23.54590
    C147    17.73672   21.25453   22.37218
    H148    15.75785   21.31857   23.21673
    H149    16.58012   19.97901   23.79076
    H150    18.78787   21.04181   22.56694
    H151    17.74252   22.30230   22.07178
    H152    17.46611   20.60404   21.54047
    C153    16.48910   25.32631   26.30754
    C154    15.19040   25.60365   26.92463
    H155    16.47687   25.82010   25.33587
    H156    17.23711   25.90470   26.84979
    H157    15.07647   26.67300   27.10244
    H158    14.93688   25.10853   27.86201
    H159    14.41440   25.40368   26.18575
    C160    18.58946   21.12244   28.25478
    C161    17.52472   20.34607   28.99382
    H162    19.37934   20.39290   28.07602
    H163    18.97294   21.87065   28.94850
    H164    17.06578   19.66276   28.27928
    H165    16.80098   20.99907   29.48155
    H166    18.06435   19.79194   29.76184
    H167    32.85868   25.47803   21.10879
    H168    32.33979   25.83059   19.53950
      S1    26.58790   27.07186   22.56378
      O2    25.41483   27.76071   22.86509
      O3    27.69402   27.97797   22.80046
      O4    26.51732   26.57144   21.25129
      O5    26.67848   25.96038   23.49573
      S1    26.52089   23.16232   15.40273
      O2    27.15134   21.92309   15.72655
      O3    25.29011   22.88135   14.64489
      O4    27.30498   23.88154   14.45587
      O5    26.33562   23.97494   16.61384
      S1    23.36153   23.51484   23.15075
      O2    23.32897   22.44076   22.18892
      O3    22.08143   23.65298   23.76773
      O4    23.74705   24.72476   22.48078
      O5    24.32392   23.15105   24.17295

