183
frame 958 | Written by MDAnalysis XYZWriter (release 1.1.1)
      C1    21.65758   26.82537   20.01302
      O2    22.03637   27.06870   21.11398
      N3    20.47892   26.22119   19.79530
      N4    22.42034   27.09362   18.96519
      N5    19.95320   25.47697   20.74058
      C6    18.73619   24.96092   20.66977
      C7    18.26749   24.02365   21.70013
      H8    18.19227   25.03451   19.72805
      H9    20.12548   26.03338   18.86799
     N10    23.63987   27.48413   19.13023
     H11    21.95874   27.15812   18.06916
     C12    24.43373   27.55428   18.04733
     C13    25.84173   27.89458   18.22284
     H14    24.16341   27.33731   17.01392
     C15    18.94388   23.84212   22.87893
     C16    17.04140   23.40703   21.54381
     C17    18.48945   22.86789   23.79470
     N18    17.40300   22.15270   23.55930
     C19    16.62634   22.42299   22.47829
     H20    19.77716   24.45017   23.19880
     H21    19.05491   22.63402   24.68463
     H22    16.35269   23.66309   20.75229
     H23    15.64037   21.99123   22.38968
     C24    16.79818   21.25982   24.61462
     C25    17.68094   20.76727   25.77141
     H26    16.28815   20.48449   24.04291
     H27    15.98723   21.83163   25.06572
     C28    18.33448   19.50323   25.71045
     C29    19.02246   18.98724   26.86853
     C30    19.18779   19.85370   28.00753
     C31    18.49458   21.11114   28.09181
     C32    17.79784   21.56105   26.95606
     C33    26.56238   28.27438   17.05848
     C34    26.54901   27.74286   19.42238
     C35    27.91430   28.02903   19.45793
     C36    27.95152   28.65058   17.14417
     N37    28.62068   28.46762   18.36172
     H38    26.08897   28.27036   16.08777
     H39    28.54030   28.87774   16.26774
     H40    26.14299   27.44773   20.37865
     H41    28.42898   27.94520   20.40370
     C42    29.98630   28.95979   18.36526
     C43    30.77008   28.62465   19.66332
     H44    30.12136   29.99479   18.05121
     H45    30.56857   28.55962   17.53525
     C46    31.37272   27.29238   19.83660
     C47    32.05811   27.00988   21.06052
     C48    32.25568   28.04300   22.01109
     C49    31.64458   29.33558   21.87163
     C50    30.85016   29.58443   20.71434
     H51    18.48087   21.27709   30.22994
     C52    18.56693   21.94525   29.37305
     N53    19.65661   22.92706   29.49936
     O54    24.18872   27.90859   26.67987
     C55    19.40799   23.81785   30.49923
     C56    20.65376   23.07020   28.65352
     H57    18.55136   23.74344   31.15272
     C58    20.33899   24.90616   30.68831
     C59    21.58689   24.13223   28.80230
     C60    21.45718   25.06088   29.79401
     C61    24.61236   28.07195   27.84031
     N62    22.94761   26.68458   28.76382
     C63    22.45187   26.16949   29.90086
     H64    17.58544   22.41624   29.42743
     H65    20.18162   25.54179   31.54716
     H66    27.85853   28.45048   24.85695
     N67    23.91246   27.53872   28.83010
     H68    22.36075   24.27570   28.06272
     C69    28.68862   29.11904   25.03123
     N70    25.75607   28.80328   28.13978
     N71    26.49040   29.28289   27.15508
     H72    29.51253   28.56812   23.17682
     C73    29.66041   29.17896   24.05512
     C74    27.76859   29.61169   27.31815
     H75    32.72756   30.50255   23.27731
     C76    28.69394   29.92121   26.19598
     H77    26.03119   28.96426   29.09816
     H78    22.68698   26.34902   30.94995
     H79    24.21599   27.73231   29.77376
     N80    30.74111   30.05305   24.15294
     C81    31.68744   30.32389   23.00465
     H82    28.41356   29.65269   28.19590
     C83    29.73679   30.86191   26.24444
     C84    30.70569   30.88346   25.24024
     H85    29.88043   31.51737   27.09069
     H86    31.53427   31.56831   25.34433
     H87    31.39411   31.33810   22.73368
     H88    20.75031   22.43626   27.78450
     H89    19.64988   17.18162   27.92581
     C90    19.65720   17.60722   26.92236
     N91    20.98144   17.45515   26.31703
     O92    28.00166   19.09585   24.71021
     C93    21.43178   16.23069   25.92229
     C94    21.78659   18.55034   26.14121
     H95    20.77375   15.38265   26.04151
     C96    22.67066   16.07282   25.16219
     C97    22.93278   18.42364   25.35430
     C98    23.41275   17.20575   24.78923
     C99    27.61521   18.76240   23.56407
    N100    25.72783   17.81692   24.31496
    C101    24.66840   17.11671   24.00800
    H102    19.05083   16.83509   26.44884
    H103    23.00977   15.08964   24.87106
    H104    28.57784   23.41254   22.07109
    N105    26.61567   17.88221   23.30492
    H106    23.47132   19.32577   25.10426
    C107    29.58791   23.42017   21.68886
    N108    28.19875   19.16955   22.47855
    N109    29.07144   20.19216   22.44068
    H110    29.96087   25.59221   21.65714
    C111    30.39879   24.61473   21.51869
    C112    29.24542   20.94452   21.37123
    C113    30.12747   22.17053   21.43829
    H114    27.83336   18.86601   21.58723
    H115    24.38622   16.74329   23.02361
    H116    26.36110   17.66221   22.35262
    N117    31.70605   24.44853   21.29904
    C118    32.59978   25.61244   21.25725
    H119    28.67469   20.95685   20.44268
    C120    31.50164   22.06672   21.25316
    C121    32.29745   23.22017   21.15598
    H122    31.92055   21.09412   21.04110
    H123    33.36303   23.13542   21.00183
    H124    21.50892   19.53949   26.47421
    C125    31.32247   26.22701   18.76659
    C126    32.38585   26.44215   17.73480
    H127    30.41051   26.36277   18.18522
    H128    31.36750   25.21441   19.16747
    H129    33.41663   26.28544   18.05269
    H130    32.29063   27.47602   17.40293
    H131    32.31674   25.69206   16.94695
    C132    30.30407   30.97025   20.51863
    C133    28.83535   31.15165   21.00305
    H134    30.91981   31.73940   20.98487
    H135    30.36876   31.26844   19.47221
    H136    28.74042   30.83578   22.04195
    H137    28.11113   30.58558   20.41724
    H138    28.53591   32.19969   21.01040
    C139    33.16843   27.78551   23.18674
    C140    32.38734   27.05195   24.23136
    H141    34.06127   27.27377   22.82749
    H142    33.44835   28.76109   23.58423
    H143    31.95975   26.12033   23.86075
    H144    31.63457   27.69021   24.69403
    H145    32.98529   26.69370   25.06935
    C146    18.27217   18.66154   24.46935
    C147    19.12119   19.14304   23.26765
    H148    17.25689   18.46784   24.12325
    H149    18.67162   17.67904   24.72083
    H150    19.03489   18.42988   22.44786
    H151    20.18390   19.10931   23.50766
    H152    18.85315   20.12624   22.88090
    C153    17.12230   22.87291   27.03473
    C154    15.63878   22.75506   27.53424
    H155    17.13615   23.32476   26.04289
    H156    17.68188   23.58843   27.63723
    H157    15.68244   22.35778   28.54833
    H158    15.02857   22.11172   26.90032
    H159    15.11672   23.70982   27.47109
    C160    19.80937   19.34301   29.23675
    C161    18.72851   18.54799   30.07882
    H162    20.68826   18.72410   29.05619
    H163    20.23041   20.19350   29.77293
    H164    17.85932   19.18835   30.22902
    H165    19.09992   18.23681   31.05520
    H166    18.28797   17.72573   29.51497
    H167    33.29221   25.54228   22.09614
    H168    33.25357   25.45337   20.39973
      S1    26.88616   26.09754   22.87254
      O2    25.59516   26.62846   23.27996
      O3    27.81131   27.22659   22.74089
      O4    26.73935   25.35020   21.64722
      O5    27.29519   25.20268   23.89856
      S1    28.57660   21.94313   15.33561
      O2    29.85298   21.25454   15.42111
      O3    27.51796   20.95184   15.50668
      O4    28.50055   22.51119   13.99577
      O5    28.53564   23.00908   16.35590
      S1    24.26867   22.00865   24.01293
      O2    24.17887   20.76302   23.28186
      O3    23.12213   22.19890   24.88783
      O4    24.38150   23.07632   23.07788
      O5    25.47942   22.03322   24.81273

