183
frame 575 | Written by MDAnalysis XYZWriter (release 1.1.1)
      C1    21.63533   28.58989   19.62837
      O2    22.12967   28.88154   20.73207
      N3    20.40832   28.02544   19.56635
      N4    22.42788   28.65828   18.55751
      N5    19.83224   27.75422   20.72544
      C6    18.54674   27.43323   20.71528
      C7    17.89864   26.72000   21.86133
      H8    17.99300   27.32600   19.78255
      H9    20.03630   27.66015   18.70132
     N10    23.75576   28.89602   18.70139
     H11    22.02013   28.44696   17.65796
     C12    24.47191   29.33221   17.64853
     C13    25.99007   29.34460   17.66101
     H14    24.06168   29.43350   16.64377
     C15    18.58745   25.94859   22.85434
     C16    16.54199   26.96749   22.06518
     C17    17.83737   25.21204   23.78025
     N18    16.45150   25.20010   23.74876
     C19    15.84286   26.17359   23.02531
     H20    19.66318   25.85404   22.83770
     H21    18.39284   24.58701   24.46376
     H22    16.00729   27.52252   21.30858
     H23    14.76620   26.25375   22.99739
     C24    15.65840   24.13837   24.40812
     C25    16.36956   23.37242   25.48962
     H26    15.37807   23.47121   23.59300
     H27    14.76725   24.58828   24.84577
     C28    16.75534   21.95249   25.30462
     C29    17.59241   21.28528   26.26549
     C30    17.91947   21.98701   27.48250
     C31    17.47773   23.33553   27.71076
     C32    16.75657   24.03725   26.72862
     C33    26.68732   29.95117   16.56838
     C34    26.71730   28.78652   18.66746
     C35    28.11707   28.82095   18.68342
     C36    28.06707   29.96127   16.64076
     N37    28.78798   29.38298   17.67363
     H38    26.21928   30.28370   15.65364
     H39    28.63268   30.42345   15.84522
     H40    26.21935   28.36018   19.52576
     H41    28.61675   28.44841   19.56542
     C42    30.29220   29.48184   17.62111
     C43    31.04939   28.73609   18.70409
     H44    30.50398   30.54979   17.67350
     H45    30.64246   29.21394   16.62430
     C46    31.32029   27.36060   18.52968
     C47    32.07598   26.57923   19.47707
     C48    32.53781   27.19267   20.66018
     C49    32.20304   28.57341   20.87978
     C50    31.55780   29.36493   19.87606
     H51    17.90276   23.40074   29.83511
     C52    17.88987   24.08419   28.98609
     N53    19.20431   24.79317   29.00137
     O54    25.11359   28.00927   25.68803
     C55    19.46161   25.68009   30.02171
     C56    20.05995   24.63905   27.92835
     H57    18.83700   25.79705   30.89497
     C58    20.67448   26.44219   29.96255
     C59    21.23188   25.36169   27.87851
     C60    21.50441   26.33796   28.86899
     C61    25.39836   28.29857   26.87952
     N62    23.43116   27.46459   27.71548
     C63    22.70132   27.19671   28.82120
     H64    17.14126   24.79282   29.34041
     H65    20.92719   27.14221   30.74518
     H66    28.46408   28.05581   24.04105
     N67    24.54329   28.15358   27.87638
     H68    21.94160   25.32346   27.06535
     C69    29.41730   28.54556   24.17496
     N70    26.60951   28.81287   27.23245
     N71    27.51059   28.92193   26.28352
     H72    29.94021   28.41247   22.09511
     C73    30.29426   28.68136   23.07936
     C74    28.80634   29.08318   26.59466
     H75    33.51950   28.79445   22.62322
     C76    29.74071   29.16821   25.43655
     H77    26.79252   29.18740   28.15241
     H78    22.85932   27.55926   29.83693
     H79    24.68561   28.53596   28.80030
     N80    31.57307   29.10581   23.27022
     C81    32.59686   29.21238   22.22054
     H82    29.30438   29.16530   27.56074
     C83    31.01746   29.72501   25.55686
     C84    31.90633   29.63679   24.47855
     H85    31.33233   30.07591   26.52852
     H86    32.93128   29.90449   24.68880
     H87    32.95457   30.22058   22.01156
     H88    19.97461   23.86751   27.17746
     H89    17.92979   19.35239   26.97806
     C90    18.09849   19.80954   26.00304
     N91    19.47152   19.53985   25.45127
     O92    26.71260   19.72407   23.82482
     C93    19.89612   18.22676   25.34140
     C94    20.20180   20.57837   24.96976
     H95    19.33480   17.37055   25.68524
     C96    21.10863   17.88367   24.72397
     C97    21.40739   20.28783   24.33862
     C98    21.88475   18.94174   24.23816
     C99    26.13168   19.63323   22.68964
    N100    24.09674   19.11024   23.43083
    C101    22.95291   18.56271   23.32862
    H102    17.40576   19.23280   25.39018
    H103    21.37634   16.85898   24.51247
    H104    28.12226   23.95293   20.75823
    N105    24.95251   19.07337   22.43948
    H106    21.95586   21.08940   23.86631
    C107    29.03410   23.63592   20.27403
    N108    26.73199   20.09796   21.57336
    N109    27.87414   20.77983   21.51569
    H110    29.79246   25.63715   20.00961
    C111    30.00102   24.58503   19.88335
    C112    28.12874   21.28639   20.28385
    C113    29.22631   22.29546   20.05362
    H114    26.18755   19.90408   20.74506
    H115    22.59973   18.07039   22.42253
    H116    24.55116   19.17886   21.51867
    N117    31.17937   24.16213   19.38338
    C118    32.35254   25.07578   19.22018
    H119    27.45821   21.24569   19.42547
    C120    30.47524   21.87652   19.50149
    C121    31.45331   22.82729   19.18914
    H122    30.71188   20.82281   19.49097
    H123    32.46743   22.53695   18.95750
    H124    19.79939   21.58029   24.99434
    C125    30.82188   26.67901   17.27966
    C126    31.94271   26.69606   16.20380
    H127    29.90127   27.07246   16.84864
    H128    30.63193   25.65163   17.59035
    H129    31.41627   26.26034   15.35462
    H130    32.82455   26.10865   16.45957
    H131    32.17157   27.71996   15.90825
    C132    31.42463   30.85507   20.05561
    C133    30.06719   31.35804   20.40667
    H134    32.17463   31.32167   20.69427
    H135    31.61741   31.27377   19.06787
    H136    29.29961   30.99896   19.72111
    H137    30.01877   32.44585   20.45580
    H138    29.91170   30.93444   21.39888
    C139    33.34311   26.41066   21.65075
    C140    32.44734   25.61359   22.65003
    H141    34.08578   25.80829   21.12758
    H142    34.08781   27.05556   22.11725
    H143    31.98042   24.76172   22.15564
    H144    31.66878   26.21448   23.12001
    H145    33.05244   25.26975   23.48892
    C146    16.30817   21.16199   24.07629
    C147    17.22031   21.40613   22.82427
    H148    15.25803   21.39729   23.90320
    H149    16.26630   20.09058   24.27233
    H150    16.72176   20.93809   21.97546
    H151    18.24122   21.08215   23.02645
    H152    17.28024   22.46040   22.55403
    C153    16.34046   25.44962   26.92763
    C154    15.03609   25.45106   27.76570
    H155    16.32845   26.01839   25.99787
    H156    17.08931   25.92106   27.56408
    H157    14.69550   26.45861   28.00433
    H158    15.02268   24.89305   28.70194
    H159    14.36100   24.83163   27.17524
    C160    18.69104   21.29303   28.56825
    C161    17.61560   20.66488   29.48104
    H162    19.39050   20.59189   28.11299
    H163    19.27059   22.03806   29.11337
    H164    17.01892   21.42956   29.97837
    H165    18.10100   20.12164   30.29183
    H166    16.96512   20.01664   28.89388
    H167    33.10508   24.66246   19.89172
    H168    32.63853   25.03785   18.16905
      S1    26.75987   26.78044   21.41742
      O2    25.63029   27.65709   21.58611
      O3    27.97801   27.54670   21.51119
      O4    26.67681   26.16936   20.09940
      O5    26.78282   25.79351   22.49096
      S1    27.36827   22.56423   14.38403
      O2    27.82387   21.25120   14.86758
      O3    26.04285   22.43979   13.80878
      O4    28.36101   22.96512   13.43259
      O5    27.35939   23.56979   15.45484
      S1    23.58278   23.36098   22.86020
      O2    23.15952   22.24295   22.10185
      O3    22.52819   23.71834   23.80584
      O4    23.94453   24.49045   22.01129
      O5    24.85677   23.00788   23.44972

