216
frame 596 | Written by MDAnalysis XYZWriter (release 1.1.1)
      C1    18.73462   27.48178   13.36601
      C2    18.31234   26.34920   14.05320
      C3    19.76051   28.26044   13.91337
      C4    20.43855   27.79285   15.06063
      C5    19.97456   26.64644   15.70453
      C6    18.83868   25.94518   15.26506
      H7    17.42957   25.87023   13.65607
      H8    18.31017   27.76994   12.41564
      H9    20.19593   29.11450   13.41599
     H10    20.39171   26.42429   16.67563
     C11    21.56176   28.54769   15.65407
     O12    21.63116   29.76723   15.45093
     N13    22.53373   27.99127   16.35366
     N14    23.46796   28.70019   17.02620
     C15    24.37688   27.95819   17.63780
     C16    18.25632   24.83651   16.13560
     O17    18.42627   24.92061   17.36389
     N18    17.89667   23.68096   15.45123
     N19    17.75234   22.48280   15.99669
     C20    17.19988   21.45758   15.35052
     C21    17.26529   20.04371   15.92956
     H22    16.80673   21.63612   14.34970
     C23    17.72054   19.86643   17.24967
     C24    17.90524   18.63491   17.84556
     N25    17.85046   17.52457   17.06544
     C26    17.22752   17.54695   15.81897
     C27    16.84984   18.83519   15.29442
     H28    17.22927   16.72317   15.12055
     H29    16.43163   18.79890   14.29934
     C30    18.40765   16.26688   17.46888
     C31    25.51113   28.52112   18.38128
     H32    24.30257   26.87350   17.71544
     C33    26.07482   27.87190   19.49560
     C34    26.25849   29.64380   17.92121
     C35    27.45430   30.06764   18.52881
     N36    27.91688   29.35953   19.64519
     C37    27.28050   28.28054   20.11683
     H38    25.54845   26.98296   19.81044
     H39    27.62485   27.80843   21.02508
     C40    29.12229   29.91140   20.36448
     H41    22.64156   26.99006   16.27593
     H42    17.84125   23.68489   14.44276
     C43    29.33822   29.43009   21.77429
     H44    29.13266   31.00084   20.39795
     H45    29.97852   29.61319   19.75946
     C46    30.18192   28.33518   22.01090
     C47    30.67446   28.06931   23.32942
     C48    30.10739   28.74470   24.43536
     C49    29.04668   29.63566   24.24567
     C50    28.67105   30.07798   22.89767
     C51    19.34639   16.35904   18.64939
     H52    18.83496   15.79960   16.58166
     C53    20.63880   16.90674   18.39938
     C54    21.44556   17.29628   19.58250
     C55    21.02168   16.87341   20.89873
     C56    19.76955   16.19640   21.07940
     C57    18.89527   16.08426   19.97866
     C58    27.70811   31.22712   22.66943
     C59    26.24332   30.84822   22.45461
     H60    27.73950   31.89155   23.53294
     H61    28.01505   31.79667   21.79221
     H62    26.09084   30.07578   21.70082
     H63    25.66928   31.72294   22.14892
     H64    25.72815   30.45721   23.33199
     C65    30.63764   27.42910   20.92445
     C66    31.99589   27.79452   20.20612
     H67    29.85948   27.40269   20.16164
     H68    30.72779   26.40437   21.28488
     H69    32.01676   28.86555   20.00473
     H70    32.05535   27.31147   19.23082
     H71    32.88792   27.57792   20.79390
     C72    30.48070   28.29888   25.81600
     C73    31.67256   29.11318   26.44605
     H74    30.78017   27.25393   25.73523
     H75    29.66982   28.26411   26.54357
     H76    32.56768   29.13614   25.82449
     H77    31.86490   28.65654   27.41692
     H78    31.27135   30.11103   26.62331
     C79    21.06567   17.33140   17.06682
     C80    22.23042   16.46893   16.50011
     H81    21.24777   18.40311   16.98698
     H82    20.31222   17.10753   16.31164
     H83    23.09751   16.45655   17.16050
     H84    22.63506   16.78058   15.53718
     H85    21.93626   15.43350   16.32850
     C86    21.92200   17.06934   22.06515
     C87    21.66718   18.31591   22.89281
     H88    21.95983   16.19408   22.71367
     H89    22.95327   16.99918   21.71922
     H90    20.78027   18.19760   23.51530
     H91    21.50560   19.15991   22.22225
     H92    22.46536   18.38528   23.63186
     C93    17.44751   15.66636   20.26774
     C94    17.28973   14.06359   20.04805
     H95    16.72367   16.17090   19.62774
     H96    17.04471   15.88193   21.25738
     H97    17.44394   13.86832   18.98683
     H98    16.35043   13.65444   20.42010
     H99    17.97711   13.59936   20.75523
    H100    17.50078   15.70060   17.68105
    H101    28.02406   30.89378   18.12972
    H102    25.96910   30.26731   17.08821
    H103    18.21006   18.57448   18.87988
    H104    17.81416   20.75318   17.85903
    C105    28.30398   30.18733   25.47740
    N106    27.20153   29.38269   25.99933
    C107    26.61513   29.79151   27.19466
    C108    27.01596   28.15030   25.60576
    C109    25.58146   28.99701   27.83439
    C110    25.35936   27.70510   27.29587
    H111    26.97617   30.73554   27.57524
    C112    26.08061   27.24755   26.21434
    N113    23.49763   27.13977   28.80207
    H114    27.42527   27.80546   24.66770
    C115    24.38557   26.79091   27.91325
    H116    24.96227   29.45579   28.59104
    H117    25.91928   26.26543   25.79503
    H118    22.49199   25.41383   28.36678
    N119    22.56023   26.22620   28.96301
    H120    24.50566   25.77912   27.52601
    H121    18.02113   17.92988   21.77169
    C122    21.47158   26.40828   29.84138
    H123    17.25190   19.89088   23.28865
    O124    21.39609   27.46361   30.51530
    C125    18.16754   17.94657   22.84159
    H126    17.79059   22.41571   26.79772
    C127    17.72420   18.99824   23.67146
    C128    20.29121   25.40193   29.73001
    H129    21.34560   23.89337   28.56021
    C130    20.40298   24.23597   28.96082
    N131    18.46213   21.77087   27.18927
    N132    18.46004   20.55557   26.69986
    N133    18.85177   16.92961   23.36622
    C134    19.08776   25.75976   30.30736
    C135    18.01587   19.01021   25.01798
    H136    19.00223   26.70471   30.82326
    C137    19.26899   23.44925   28.71905
    C138    17.60064   20.17767   25.81313
    C139    19.40986   22.11451   28.04442
    C140    17.94347   24.98550   30.12992
    C141    19.04605   16.85279   24.73260
    C142    18.05201   23.86859   29.29619
    C143    18.67313   17.90027   25.59161
    H144    16.79791   20.73761   25.33336
    H145    16.96732   25.32477   30.44364
    O146    20.45974   21.43651   28.21467
    H147    19.45726   15.90610   25.05054
    H148    17.14192   23.32457   29.09085
    H149    18.97350   17.88006   26.62880
    C150    19.35435   15.77218   22.47725
    C151    31.97425   27.26047   23.53868
    N152    31.83267   25.80780   23.83970
    C153    30.63915   25.23430   23.91198
    C154    32.92504   25.11190   24.29800
    C155    30.45376   23.85015   24.24026
    C156    31.58498   23.14288   24.64796
    H157    29.79210   25.77767   23.51999
    C158    32.84395   23.76606   24.66186
    N159    32.27596   20.81321   24.90288
    H160    33.87591   25.60989   24.41735
    C161    31.46881   21.82244   25.37659
    H162    29.44655   23.46388   24.18812
    H163    33.70667   23.24417   25.04884
    H164    32.02465   19.59438   26.57284
    N165    32.35021   19.68060   25.62064
    H166    30.90587   21.92102   26.30475
    H167    24.63928   19.68837   18.83993
    C168    32.84782   18.54424   25.22224
    H169    27.09752   19.22908   19.24836
    O170    32.80441   17.54919   25.87722
    C171    24.93284   18.71151   19.19483
    H172    30.30267   17.08231   21.50974
    C173    26.30860   18.50430   19.38501
    C174    33.32833   18.43966   23.79668
    H175    31.27265   17.96234   23.16507
    C176    32.28167   18.20411   22.86533
    N177    30.29726   17.57109   20.62590
    N178    29.13756   17.82292   20.06022
    N179    24.01875   17.79194   19.46588
    C180    34.66390   18.58334   23.37190
    C181    26.71158   17.28303   19.94696
    H182    35.41745   18.77485   24.12149
    C183    32.51534   18.32798   21.45638
    C184    28.14513   16.95489   20.29845
    C185    31.41441   18.30116   20.39776
    C186    34.92695   18.69076   21.97499
    C187    24.42768   16.54407   19.81871
    C188    33.85014   18.63095   21.05211
    C189    25.78945   16.28200   20.19722
    H190    28.25412   15.97956   20.77273
    H191    35.95185   18.81271   21.65702
    O192    31.45619   19.13239   19.46766
    H193    23.70960   15.74435   19.92458
    H194    34.14109   18.80768   20.02716
    H195    26.23004   15.38900   20.61535
    C196    22.59932   18.29616   19.49685
    H197    20.13633   15.21043   22.98817
    H198    27.98901   31.22383   25.35675
    H199    22.52623   19.06574   20.26530
    H200    32.75216   27.40911   22.78978
    H201    32.57590   27.78447   24.28134
    H202    29.08029   30.37374   26.21949
    H203    18.63267   14.95615   22.44014
    H204    22.35181   18.99134   18.69463
      P1    24.61363   23.75820   22.45208
      O2    23.97852   25.09581   22.92273
      O3    25.90548   23.51883   23.19664
      H4    26.23085   22.65953   22.99830
      O5    24.78490   23.74167   20.90248
      O6    23.54532   22.61447   22.78245
      P1    24.11002   22.44846   15.07318
      O2    25.28631   22.16323   14.06010
      O3    24.19836   21.55325   16.26976
      H4    23.98339   22.00391   17.06618
      O5    22.72352   22.27178   14.37242
      O6    24.15065   23.91913   15.54161

