216
frame 180 | Written by MDAnalysis XYZWriter (release 1.1.1)
      C1    20.67665   32.57031   15.19738
      C2    19.89567   31.57966   15.80467
      C3    21.91011   32.81781   15.79582
      C4    22.40687   32.01501   16.88657
      C5    21.59205   30.96244   17.40375
      C6    20.30215   30.76440   16.88886
      H7    18.91082   31.40113   15.39898
      H8    20.33289   33.23142   14.41562
      H9    22.52077   33.64014   15.45336
     H10    21.79822   30.40852   18.30767
     C11    23.79691   32.25133   17.43587
     O12    24.32251   33.36837   17.17121
     N13    24.37853   31.37567   18.25450
     N14    25.64287   31.43703   18.64278
     C15    26.06481   30.46293   19.43525
     C16    19.42048   29.70008   17.55325
     O17    19.76373   29.31165   18.69827
     N18    18.43468   29.08429   16.90854
     N19    17.82585   28.01526   17.41558
     C20    17.17322   27.17677   16.60170
     C21    16.96968   25.73860   17.04345
     H22    17.09015   27.31890   15.52421
     C23    17.11390   25.32316   18.34043
     C24    17.08537   23.97706   18.74776
     N25    16.86989   23.03800   17.78187
     C26    16.50470   23.40779   16.55889
     C27    16.48394   24.74891   16.12346
     H28    16.34186   22.62213   15.83596
     H29    16.32030   25.09130   15.11232
     C30    17.09713   21.59938   17.99208
     C31    27.39133   30.47754   20.13055
     H32    25.40898   29.67008   19.79495
     C33    27.51751   29.90275   21.42237
     C34    28.57858   30.98431   19.55565
     C35    29.72083   31.01890   20.35093
     N36    29.74576   30.49526   21.63827
     C37    28.65136   29.88808   22.15306
     H38    26.65257   29.48112   21.91279
     H39    28.62688   29.46587   23.14681
     C40    30.93760   30.77558   22.43810
     H41    23.83919   30.53462   18.40233
     H42    18.20373   29.35355   15.96289
     C43    30.86792   30.11244   23.82009
     H44    31.14741   31.84188   22.52223
     H45    31.89433   30.64797   21.93167
     C46    31.70678   28.93014   24.01781
     C47    31.75920   28.36094   25.30224
     C48    31.06146   28.95788   26.36970
     C49    30.22257   30.11852   26.20796
     C50    30.20851   30.73695   24.91117
     C51    18.00340   21.39786   19.19392
     H52    17.52954   21.20857   17.07100
     C53    19.41250   21.54353   19.10492
     C54    20.24425   21.40744   20.27391
     C55    19.64716   20.95389   21.50014
     C56    18.22332   20.82468   21.61938
     C57    17.43435   21.10658   20.49523
     C58    29.55113   32.02643   24.71987
     C59    28.03296   31.91813   24.61353
     H60    29.80277   32.70161   25.53774
     H61    30.06183   32.55820   23.91706
     H62    27.61641   32.84940   24.22971
     H63    27.58160   31.73821   25.58924
     H64    27.69640   31.10025   23.97642
     C65    32.42722   28.25313   22.86155
     C66    33.84106   28.61680   22.59303
     H67    31.87494   28.39175   21.93210
     H68    32.37623   27.16825   22.95390
     H69    33.81413   29.65385   22.25851
     H70    34.21247   28.03281   21.75094
     H71    34.30657   28.60939   23.57860
     C72    31.06460   28.31362   27.74496
     C73    32.23168   28.62801   28.65637
     H74    31.01246   27.22725   27.67291
     H75    30.08086   28.56495   28.14145
     H76    32.11228   28.11795   29.61224
     H77    32.25870   29.69610   28.87214
     H78    33.20205   28.39902   28.21586
     C79    20.07351   21.88647   17.80146
     C80    20.39416   20.54829   17.07297
     H81    20.99873   22.46271   17.80589
     H82    19.38518   22.50223   17.22255
     H83    20.98405   19.84040   17.65523
     H84    20.96801   20.79614   16.18001
     H85    19.53294   19.96382   16.74925
     C86    20.62172   20.41519   22.54873
     C87    21.05695   21.41678   23.67916
     H88    20.11731   19.53869   22.95544
     H89    21.52923   19.96007   22.15201
     H90    21.69596   20.93323   24.41805
     H91    20.26856   21.87458   24.27663
     H92    21.79028   22.14256   23.32764
     C93    15.93440   21.02501   20.59962
     C94    15.51239   19.55339   20.45266
     H95    15.47076   21.74139   19.92142
     H96    15.53789   21.26892   21.58522
     H97    15.71345   19.17870   19.44902
     H98    14.47152   19.63286   20.76631
     H99    16.03536   18.85901   21.11025
    H100    16.11703   21.12986   18.07597
    H101    30.62016   31.45127   19.93782
    H102    28.52828   31.48556   18.60034
    H103    17.18555   23.62825   19.76496
    H104    17.33776   26.03979   19.11678
    C105    29.57609   30.70444   27.43106
    N106    28.26101   30.12770   27.76303
    C107    27.57788   30.58655   28.82127
    C108    27.66706   29.21787   26.97711
    C109    26.37091   30.05775   29.25782
    C110    25.75580   29.05353   28.51573
    H111    28.08958   31.36061   29.37389
    C112    26.39641   28.61780   27.36127
    N113    23.79244   28.76934   30.01996
    H114    28.05469   29.04884   25.98335
    C115    24.36459   28.58558   28.84289
    H116    25.92941   30.46154   30.15695
    H117    25.88119   27.95693   26.67996
    H118    21.93125   28.14734   29.45799
    N119    22.55953   28.33531   30.22613
    H120    23.88690   28.22124   27.93340
    H121    17.61263   23.15535   22.68348
    C122    22.05466   28.52430   31.41664
    H123    17.59364   24.87199   24.40382
    O124    22.71368   28.64909   32.45338
    C125    17.68419   22.79885   23.70043
    H126    19.07884   26.09424   28.52871
    C127    17.69840   23.82376   24.64182
    C128    20.63519   28.12528   31.63522
    H129    20.72598   26.48649   30.25216
    C130    20.06925   27.00039   30.93846
    N131    18.43728   25.46198   28.98561
    N132    17.96685   24.48260   28.24270
    N133    17.71494   21.46542   24.04901
    C134    19.83520   28.82494   32.53786
    C135    17.86737   23.45780   25.97901
    H136    20.19458   29.67282   33.10209
    C137    18.73703   26.59017   31.13496
    C138    18.09649   24.58122   26.93355
    C139    18.15454   25.49641   30.29684
    C140    18.47058   28.50490   32.63385
    C141    17.70607   21.06894   25.33439
    C142    17.94470   27.35719   32.02431
    C143    17.85769   22.05376   26.35845
    H144    18.56975   25.39214   26.37990
    H145    17.86616   29.13644   33.26807
    O146    17.49974   24.60653   30.89200
    H147    17.64785   20.00745   25.52481
    H148    16.90404   27.11407   32.18030
    H149    17.99951   21.76704   27.38999
    C150    17.73623   20.42345   22.95894
    C151    32.64244   27.18424   25.57539
    N152    31.93347   25.87905   25.59211
    C153    30.60125   25.67014   25.42746
    C154    32.80347   24.84421   25.74082
    C155    30.11900   24.32127   25.55531
    C156    30.95309   23.19692   25.85296
    H157    29.90632   26.46143   25.18802
    C158    32.34430   23.49548   25.91833
    N159    30.82833   20.76785   25.62216
    H160    33.85213   25.07339   25.85991
    C161    30.36419   21.86673   26.17673
    H162    29.04302   24.22813   25.55488
    H163    33.09047   22.71589   25.96136
    H164    30.47575   19.46876   27.14851
    N165    30.67945   19.55684   26.16319
    H166    29.70509   21.95602   27.04028
    H167    24.11358   22.88489   20.20277
    C168    30.99648   18.41575   25.51360
    H169    26.21947   21.48329   20.57792
    O170    31.11830   17.37541   26.13386
    C171    24.07245   21.80692   20.15083
    H172    28.48994   18.31079   21.84043
    C173    25.25081   21.08325   20.31702
    C174    31.48127   18.47138   24.09606
    H175    29.80547   19.55025   23.44285
    C176    30.70934   19.06372   23.10713
    N177    28.66361   18.88237   21.02604
    N178    27.67999   19.48863   20.46535
    N179    22.88733   21.15606   20.05072
    C180    32.64459   17.77092   23.70994
    C181    25.27027   19.69403   20.27922
    H182    33.34042   17.45880   24.47466
    C183    30.93416   18.77334   21.73425
    C184    26.47038   18.88848   20.58080
    C185    29.93168   19.25737   20.74066
    C186    32.93667   17.52048   22.34259
    C187    22.88888   19.84648   19.67614
    C188    32.03724   17.95031   21.37749
    C189    24.04670   19.07851   19.89831
    H190    26.23607   17.99675   21.16219
    H191    33.79627   16.93599   22.04959
    O192    30.24862   20.08256   19.88244
    H193    21.94438   19.33330   19.57141
    H194    32.30813   17.82068   20.34008
    H195    24.04959   17.99895   19.86777
    C196    21.63469   21.98738   20.22346
    H197    18.28466   19.54722   23.30469
    H198    29.43052   31.76652   27.23384
    H199    21.72497   22.62874   21.10015
    H200    33.36948   27.02420   24.77922
    H201    33.23302   27.29970   26.48423
    H202    30.24480   30.77193   28.28918
    H203    16.75612   19.95200   22.88665
    H204    21.67511   22.80215   19.50053
      P1    26.09788   26.30809   22.88976
      O2    25.43425   27.67541   23.26468
      O3    27.54343   26.17660   23.37723
      H4    27.68638   26.19166   24.30617
      O5    26.10791   26.12659   21.36707
      O6    25.22296   25.14786   23.46756
      P1    25.04968   25.57310   15.85651
      O2    25.89763   25.24935   14.57720
      O3    25.44469   24.61240   17.01740
      H4    25.26308   24.89220   17.89622
      O5    23.55818   25.44912   15.44940
      O6    25.22098   27.04735   16.21954

