216
frame 261 | Written by MDAnalysis XYZWriter (release 1.1.1)
      C1    20.38312   31.18056   15.53984
      C2    19.68432   29.99373   15.85565
      C3    21.64556   31.44225   16.11934
      C4    22.24800   30.49321   17.00033
      C5    21.54743   29.34382   17.34265
      C6    20.23513   29.11809   16.81063
      H7    18.75347   29.78644   15.34873
      H8    19.94346   31.85359   14.81864
      H9    22.19336   32.36356   15.98707
     H10    21.91299   28.76589   18.17857
     C11    23.58603   30.84189   17.62054
     O12    23.81540   32.06025   17.72830
     N13    24.51526   29.90389   17.93385
     N14    25.73881   30.15434   18.38607
     C15    26.48836   29.12305   18.74160
     C16    19.49922   27.99658   17.40238
     O17    19.80299   27.76847   18.54678
     N18    18.75226   27.27997   16.59799
     N19    18.42792   26.05910   16.94997
     C20    17.74063   25.25568   16.21794
     C21    17.51436   23.89030   16.74964
     H22    17.32098   25.50982   15.24459
     C23    17.24778   23.67694   18.09123
     C24    17.19010   22.40848   18.63015
     N25    17.44640   21.32010   17.88605
     C26    17.50259   21.44975   16.50724
     C27    17.63654   22.70774   15.90502
     H28    17.51811   20.52832   15.94410
     H29    17.78716   22.90348   14.85365
     C30    17.91449   19.98535   18.38855
     C31    27.80950   29.31129   19.46338
     H32    26.17126   28.08412   18.65121
     C33    28.08288   28.75315   20.70475
     C34    28.76988   30.26179   19.01186
     C35    29.90713   30.60023   19.79947
     N36    30.07784   30.07025   21.01325
     C37    29.20089   29.12269   21.46558
     H38    27.41429   28.00828   21.11042
     H39    29.43741   28.54085   22.34418
     C40    31.21678   30.50755   21.85112
     H41    24.15737   28.96029   17.89335
     H42    18.70841   27.54133   15.62338
     C43    31.44448   29.79935   23.13420
     H44    31.10080   31.58527   21.96593
     H45    32.11602   30.50453   21.23511
     C46    32.00489   28.49492   23.11040
     C47    32.38790   27.79108   24.30348
     C48    31.88372   28.25436   25.57450
     C49    31.07286   29.44056   25.56667
     C50    30.94317   30.23202   24.39783
     C51    18.85387   20.08462   19.51327
     H52    18.36358   19.32288   17.64858
     C53    20.23049   20.34512   19.26008
     C54    21.16493   20.46313   20.36141
     C55    20.66641   20.46379   21.71575
     C56    19.29807   20.30294   21.95831
     C57    18.38192   20.06580   20.88456
     C58    30.20899   31.51522   24.44288
     C59    28.72601   31.41646   24.32505
     H60    30.46598   32.00321   25.38305
     H61    30.49557   32.22679   23.66852
     H62    28.29078   30.71035   25.03222
     H63    28.37987   31.04184   23.36175
     H64    28.20201   32.35805   24.48916
     C65    32.46709   27.96874   21.75423
     C66    33.85958   28.37782   21.42159
     H67    31.81100   28.27978   20.94127
     H68    32.38068   26.88324   21.70610
     H69    34.67913   27.91275   21.96945
     H70    34.02521   29.44724   21.55209
     H71    34.15110   28.22281   20.38280
     C72    32.39687   27.65057   26.87031
     C73    33.62221   28.46709   27.38146
     H74    32.66139   26.59418   26.82368
     H75    31.64216   27.61604   27.65601
     H76    33.48211   29.54012   27.51216
     H77    34.45070   28.30647   26.69160
     H78    33.94204   28.04361   28.33355
     C79    20.72166   20.34693   17.82979
     C80    21.32798   18.93962   17.62039
     H81    21.41456   21.16515   17.63355
     H82    19.89280   20.55105   17.15198
     H83    22.26600   18.82494   18.16358
     H84    21.60008   18.83728   16.56987
     H85    20.59049   18.21765   17.97106
     C86    21.61642   20.60866   22.86855
     C87    21.73985   22.04059   23.34892
     H88    21.33762   19.88450   23.63402
     H89    22.59857   20.20300   22.62580
     H90    20.85361   22.27314   23.93934
     H91    21.91495   22.82197   22.60941
     H92    22.52072   22.11222   24.10603
     C93    16.97262   19.62550   21.17161
     C94    16.96906   18.15244   21.29278
     H95    16.36446   19.86229   20.29859
     H96    16.57881   20.08988   22.07569
     H97    17.40850   17.70705   20.40025
     H98    15.99448   17.71682   21.51310
     H99    17.57054   17.79213   22.12735
    H100    16.97084   19.46618   18.55613
    H101    30.47134   31.46481   19.48234
    H102    28.54555   30.87437   18.15116
    H103    17.08901   22.33172   19.70267
    H104    17.11356   24.51799   18.75532
    C105    30.46730   29.95098   26.87173
    N106    29.20760   29.24145   27.31862
    C107    28.56528   29.74495   28.36626
    C108    28.62435   28.20029   26.63838
    C109    27.25824   29.43098   28.66266
    C110    26.62650   28.40460   27.92982
    H111    28.93987   30.54785   28.98387
    C112    27.34652   27.74054   26.93231
    N113    24.55807   28.71393   29.21720
    H114    29.21019   27.64279   25.92257
    C115    25.16066   28.17500   28.15827
    H116    26.70803   29.97445   29.41652
    H117    26.93321   26.92892   26.35192
    H118    22.65588   28.22400   28.77510
    N119    23.33147   28.35558   29.51427
    H120    24.83933   27.24550   27.68829
    H121    18.30496   22.71880   22.50019
    C122    22.82365   28.62683   30.79181
    H123    18.18082   24.65125   23.77014
    O124    23.54003   29.13117   31.71239
    C125    18.47088   22.56712   23.55653
    H126    19.78301   26.89294   27.96786
    C127    18.42266   23.75238   24.31780
    C128    21.35254   28.57540   30.93779
    H129    21.11421   26.72707   29.82399
    C130    20.60555   27.53503   30.32881
    N131    19.00936   26.31069   28.25514
    N132    18.65781   25.18385   27.70827
    N133    18.67245   21.32613   24.18885
    C134    20.68020   29.54221   31.68234
    C135    18.71280   23.77326   25.68040
    H136    21.21769   30.35752   32.14360
    C137    19.20988   27.57265   30.28604
    C138    18.82443   25.04985   26.43400
    C139    18.48813   26.50904   29.47116
    C140    19.28075   29.53531   31.69546
    C141    18.89942   21.29379   25.54630
    C142    18.56897   28.58728   30.96926
    C143    18.93618   22.49640   26.26848
    H144    19.17346   25.82033   25.74651
    H145    18.75095   30.33135   32.19749
    O146    17.41484   26.02656   29.89538
    H147    19.24376   20.35400   25.95204
    H148    17.49661   28.68001   30.88058
    H149    19.22589   22.47989   27.30876
    C150    18.84003   20.06943   23.44847
    C151    33.25388   26.57138   24.29105
    N152    32.56504   25.33363   24.77957
    C153    31.19867   25.16980   24.87643
    C154    33.39567   24.27544   24.95097
    C155    30.66801   23.97679   25.44068
    C156    31.51964   22.97421   25.82714
    H157    30.42699   25.86082   24.57083
    C158    32.92272   23.10632   25.63621
    N159    31.33504   20.61882   26.34575
    H160    34.45877   24.38743   24.79709
    C161    30.93489   21.85535   26.63720
    H162    29.60747   23.78953   25.52190
    H163    33.54773   22.32820   26.04888
    H164    30.72926   19.73803   28.04480
    N165    31.10069   19.59434   27.11664
    H166    30.36043   22.21153   27.49232
    H167    24.97519   21.27457   19.56083
    C168    31.43165   18.32810   26.84580
    H169    26.94325   20.13058   20.13053
    O170    31.30523   17.34680   27.60584
    C171    24.86463   20.26151   19.91845
    H172    29.18424   16.99638   22.57420
    C173    26.02813   19.56584   20.23062
    C174    31.98876   18.07282   25.47496
    H175    30.10888   18.56683   24.50345
    C176    31.11804   18.21701   24.34341
    N177    29.42113   17.62720   21.82184
    N178    28.39487   18.00592   21.07912
    N179    23.64160   19.78243   20.16157
    C180    33.31021   17.70234   25.28194
    C181    25.93969   18.23734   20.71889
    H182    33.93941   17.58852   26.15232
    C183    31.56830   17.86571   23.03253
    C184    27.13571   17.57235   21.30073
    C185    30.73085   17.93973   21.78203
    C186    33.77491   17.44574   23.97206
    C187    23.51522   18.52052   20.62709
    C188    32.92663   17.54532   22.87662
    C189    24.64645   17.69431   20.94801
    H190    26.87418   16.97380   22.17334
    H191    34.79282   17.09623   23.88202
    O192    31.25740   18.36068   20.75817
    H193    22.53360   18.14079   20.86922
    H194    33.32915   17.30043   21.90481
    H195    24.49132   16.72063   21.38880
    C196    22.61513   20.81355   20.16750
    H197    19.44380   19.38563   24.04512
    H198    30.26452   31.02056   26.92622
    H199    23.02896   21.49537   20.91045
    H200    33.86179   26.56778   23.38633
    H201    33.97203   26.76440   25.08799
    H202    31.12066   29.75271   27.72138
    H203    17.82898   19.66850   23.52014
    H204    22.62349   21.48217   19.30670
      P1    26.48045   25.50816   22.82413
      O2    26.01144   27.04776   23.05551
      O3    27.94441   25.27347   23.26206
      H4    28.10277   24.43908   23.66494
      O5    26.35692   25.17296   21.30843
      O6    25.45934   24.63370   23.61464
      P1    25.38910   23.73359   15.99810
      O2    26.59261   23.06827   15.24929
      O3    25.24248   22.97087   17.26910
      H4    24.78302   23.44838   17.93578
      O5    24.15702   23.68330   15.04240
      O6    25.80916   25.22881   16.27843

