216
frame 719 | Written by MDAnalysis XYZWriter (release 1.1.1)
      C1    18.04471   28.18408   15.03595
      C2    17.79265   26.93932   15.64979
      C3    19.29828   28.80748   15.26001
      C4    20.28813   28.14335   16.02118
      C5    20.02148   26.83480   16.51612
      C6    18.76219   26.18182   16.34706
      H7    16.82642   26.49785   15.45511
      H8    17.34035   28.68781   14.39055
      H9    19.49491   29.79917   14.88016
     H10    20.78892   26.31647   17.07180
     C11    21.64228   28.76438   16.23099
     O12    21.70136   30.01446   16.20182
     N13    22.67010   27.94783   16.64336
     N14    23.73757   28.47358   17.11447
     C15    24.55349   27.67778   17.82090
     C16    18.37177   24.86715   17.00294
     O17    18.40601   24.85235   18.22064
     N18    18.01713   23.82191   16.21763
     N19    17.71632   22.69681   16.83008
     C20    17.44188   21.68677   16.00815
     C21    17.47044   20.30839   16.60079
     H22    17.56724   21.58861   14.92984
     C23    17.63254   20.06597   17.97697
     C24    17.75593   18.74282   18.41627
     N25    17.79397   17.69495   17.52317
     C26    17.39028   17.88029   16.24140
     C27    17.34391   19.20743   15.75815
     H28    17.28226   17.13342   15.46880
     H29    17.21587   19.45073   14.71373
     C30    18.30364   16.35997   17.99959
     C31    25.87115   28.10938   18.39704
     H32    24.24066   26.68930   18.15728
     C33    26.64366   27.25208   19.23827
     C34    26.36020   29.34015   18.11295
     C35    27.64500   29.69851   18.65031
     N36    28.37589   28.92591   19.45281
     C37    27.94705   27.62573   19.63921
     H38    26.31651   26.25631   19.49868
     H39    28.45991   26.98590   20.34205
     C40    29.73416   29.39149   19.71227
     H41    22.64630   26.95675   16.45026
     H42    17.80704   23.98849   15.24386
     C43    30.40158   28.84361   21.00100
     H44    29.81175   30.47870   19.70572
     H45    30.35419   29.15851   18.84661
     C46    31.50718   27.92068   20.90298
     C47    32.33558   27.69071   22.03512
     C48    31.92416   28.15555   23.27112
     C49    30.83035   29.01863   23.41334
     C50    30.05082   29.36799   22.29593
     C51    19.26022   16.50730   19.14824
     H52    18.83431   15.88088   17.17682
     C53    20.58097   16.94156   18.85546
     C54    21.41496   17.27668   19.94239
     C55    20.97783   17.16613   21.30153
     C56    19.72774   16.49145   21.52839
     C57    18.88026   16.18462   20.45135
     C58    28.94925   30.37513   22.35133
     C59    27.55502   29.75034   22.52470
     H60    29.07500   31.10494   23.15112
     H61    28.99670   30.97607   21.44319
     H62    27.31558   29.48097   23.55339
     H63    27.35598   28.85719   21.93246
     H64    26.69707   30.37889   22.28607
     C65    31.74843   27.17602   19.58634
     C66    32.82869   27.90056   18.73861
     H67    30.78356   27.08019   19.08839
     H68    32.12482   26.16916   19.76703
     H69    32.94699   27.36588   17.79614
     H70    33.76149   27.93223   19.30163
     H71    32.63984   28.96727   18.61792
     C72    32.74722   27.78403   24.49125
     C73    33.81511   28.78622   24.96616
     H74    33.22432   26.80658   24.42005
     H75    32.09491   27.69744   25.36022
     H76    33.41831   29.79465   25.08326
     H77    34.74152   28.86710   24.39754
     H78    34.14212   28.36809   25.91818
     C79    21.08627   17.14962   17.40763
     C80    22.04203   16.04983   17.02857
     H81    21.53463   18.12187   17.20318
     H82    20.25613   17.02856   16.71170
     H83    22.95888   16.09005   17.61667
     H84    22.32591   16.27060   15.99961
     H85    21.62437   15.05719   17.19690
     C86    21.89069   17.62638   22.40701
     C87    21.75997   19.09889   22.88707
     H88    21.67352   17.06886   23.31812
     H89    22.94705   17.46832   22.18971
     H90    20.87963   19.21350   23.51950
     H91    21.53815   19.64688   21.97131
     H92    22.62147   19.59302   23.33623
     C93    17.42933   15.73040   20.74522
     C94    17.35428   14.20553   20.75481
     H95    16.79804   16.18483   19.98163
     H96    17.04428   16.14357   21.67749
     H97    18.01795   13.67762   21.43961
     H98    17.56030   13.81295   19.75905
     H99    16.38075   13.77657   20.99215
    H100    17.49965   15.63948   18.14990
    H101    27.94065   30.71970   18.46012
    H102    25.83412   29.96238   17.40409
    H103    17.82920   18.58004   19.48141
    H104    17.72851   20.85279   18.71053
    C105    30.31368   29.41491   24.81286
    N106    29.27498   28.45358   25.29951
    C107    28.40401   28.89835   26.21934
    C108    29.09259   27.18505   24.75453
    C109    27.48457   28.06659   26.84791
    C110    27.29480   26.74907   26.33036
    H111    28.49650   29.82723   26.76250
    C112    28.12694   26.31440   25.30698
    N113    25.23069   26.27429   27.67660
    H114    29.52365   26.74585   23.86702
    C115    26.16757   25.89606   26.77091
    H116    26.88491   28.42796   27.67023
    H117    27.91843   25.32912   24.91691
    H118    23.89379   24.76828   27.49025
    N119    24.12210   25.63580   27.95433
    H120    26.16111   25.03271   26.10556
    H121    18.03657   18.40137   22.45858
    C122    23.25352   26.22750   28.77295
    H123    17.64440   20.16592   24.03178
    O124    23.44632   27.30188   29.30451
    C125    18.44511   18.32794   23.45562
    H126    18.92973   22.48620   27.81714
    C127    18.15724   19.27832   24.37174
    C128    21.92207   25.57532   29.13182
    H129    22.64363   23.61563   28.68865
    C130    21.79408   24.17514   29.05144
    N131    19.45711   21.75996   28.28033
    N132    19.48537   20.62005   27.59452
    N133    19.11662   17.22508   23.82605
    C134    20.83153   26.35901   29.46461
    C135    18.74306   19.34035   25.61674
    H136    20.95600   27.43175   29.47653
    C137    20.55902   23.50281   29.41455
    C138    18.72406   20.56304   26.51179
    C139    20.39641   22.03352   29.23774
    C140    19.63618   25.71266   29.82748
    C141    19.54789   17.10233   25.12442
    C142    19.47996   24.31954   29.82441
    C143    19.34269   18.17142   26.02524
    H144    18.04211   21.30594   26.09808
    H145    18.77021   26.31124   30.06873
    O146    21.21015   21.25862   29.67864
    H147    20.09706   16.24269   25.47914
    H148    18.50408   23.89841   30.01601
    H149    19.81861   18.19829   26.99435
    C150    19.40888   16.08747   22.93170
    C151    33.54043   26.78746   21.92748
    N152    33.32522   25.36052   22.31950
    C153    32.17149   24.92341   22.83855
    C154    34.32253   24.46387   22.11584
    C155    32.11141   23.67948   23.52277
    C156    33.21984   22.85020   23.57929
    H157    31.31090   25.57392   22.88984
    C158    34.34550   23.22367   22.80901
    N159    33.54395   20.33379   23.77450
    H160    35.21290   24.80418   21.60808
    C161    33.25489   21.53500   24.30694
    H162    31.16251   23.41826   23.96748
    H163    35.17317   22.53707   22.70932
    H164    33.30264   19.60585   25.60617
    N165    33.48130   19.33975   24.64837
    H166    33.10423   21.69233   25.37495
    H167    25.02629   19.02077   18.78830
    C168    33.91362   18.08521   24.46731
    H169    27.24069   18.35812   19.18744
    O170    34.29634   17.39722   25.41738
    C171    25.10000   18.13707   19.40478
    H172    30.44161   16.10767   21.41067
    C173    26.42178   17.76618   19.56874
    C174    33.94757   17.52155   23.10010
    H175    31.93430   18.14111   22.60761
    C176    32.80389   17.60815   22.25244
    N177    30.37422   16.64596   20.55873
    N178    29.15965   17.01650   20.16475
    N179    24.07183   17.36179   19.84147
    C180    35.10410   16.84702   22.64978
    C181    26.70968   16.64775   20.33941
    H182    36.03851   16.85508   23.19128
    C183    32.78119   17.04599   20.97746
    C184    28.14004   16.34115   20.70976
    C185    31.54578   17.20149   20.13205
    C186    35.19396   16.52156   21.26593
    C187    24.28673   16.21445   20.47922
    C188    34.03145   16.54391   20.41504
    C189    25.64067   15.85337   20.71478
    H190    28.13367   15.59283   21.50227
    H191    36.14874   16.19717   20.87919
    O192    31.62390   17.69951   19.01068
    H193    23.51512   15.59298   20.90908
    H194    34.08647   16.21408   19.38811
    H195    25.82145   14.97524   21.31695
    C196    22.68696   18.00590   19.63201
    H197    20.29584   15.55002   23.26719
    H198    30.02050   30.46275   24.74821
    H199    22.69514   18.88845   20.27165
    H200    34.04976   26.87671   20.96794
    H201    34.31058   27.13502   22.61609
    H202    31.12635   29.55244   25.52612
    H203    18.63516   15.32407   23.01348
    H204    22.73213   18.46051   18.64237
      P1    25.72184   23.41385   21.88781
      O2    25.15704   24.78532   22.27511
      O3    27.10170   23.19280   22.52279
      H4    27.29448   22.27357   22.48471
      O5    25.79833   23.31268   20.37120
      O6    24.70661   22.29197   22.24803
      P1    24.53894   22.22658   14.70365
      O2    25.53498   22.13779   13.52711
      O3    24.96288   21.28797   15.88395
      H4    24.29594   21.49510   16.51314
      O5    23.14452   21.86457   14.17572
      O6    24.56247   23.70063   15.19474

