178
frame 751 | Written by MDAnalysis XYZWriter (release 1.1.1)
      C1    26.54782   25.35943   16.67419
      O2    26.28684   24.97953   17.83551
      N3    25.60015   25.74123   15.76245
      N4    27.77438   25.38571   16.18709
      N5    24.42096   26.05483   16.09962
      C6    23.47039   26.42729   15.27253
      C7    22.06150   26.57377   15.69407
      H8    23.54475   26.49703   14.18730
      H9    25.89608   25.99167   14.82982
     N10    28.68815   24.81908   16.95166
     H11    27.98036   25.48929   15.20376
     C12    29.94050   24.65070   16.54382
     C13    31.00610   24.07170   17.40627
     H14    30.23900   24.92374   15.53167
     C15    21.69913   26.25552   17.01169
     C16    21.10205   26.80353   14.71024
     C17    20.32360   26.29493   17.31445
     N18    19.34245   26.58638   16.38182
     C19    19.72445   26.80280   15.11792
     H20    22.44882   26.08720   17.77067
     H21    19.98622   26.00692   18.29914
     H22    21.41220   26.92386   13.68275
     H23    18.91931   26.92325   14.40824
     C24    17.92450   26.42508   16.70862
     C25    17.62159   26.31438   18.16897
     H26    17.59107   25.58731   16.09620
     H27    17.31609   27.21758   16.27286
     C28    17.42263   25.06735   18.81600
     C29    17.25108   24.98641   20.25661
     C30    17.48621   26.13626   21.08265
     C31    17.70294   27.35222   20.44886
     C32    17.75422   27.43163   19.02433
     C33    32.25055   23.78830   16.88544
     C34    30.69658   23.58371   18.70185
     C35    31.70180   22.87820   19.43694
     C36    33.28081   23.31660   17.78069
     N37    33.02798   22.97135   19.05893
     H38    32.68930   24.07470   15.94104
     H39    34.27440   23.34606   17.35844
     H40    29.65536   23.55997   18.98766
     H41    31.42644   22.49407   20.40804
     C42    34.17463   22.69779   19.96796
     C43    33.92994   22.37110   21.40983
     H44    34.90863   23.49072   19.82441
     H45    34.68815   21.87040   19.47825
     C46    33.43016   21.06130   21.74524
     C47    33.28887   20.69169   23.11810
     C48    33.49415   21.70624   24.14921
     C49    33.93120   23.04982   23.82837
     C50    34.16174   23.30910   22.44703
     H51    17.33925   28.67086   22.14837
     C52    18.03099   28.59035   21.30985
     N53    19.49588   28.90550   21.55695
     O54    26.74062   27.36203   22.22917
     C55    19.82767   30.18359   21.81036
     C56    20.48402   28.00143   21.36810
     H57    19.04486   30.92697   21.77862
     C58    21.14414   30.60070   22.00684
     C59    21.88618   28.34102   21.53253
     C60    22.19207   29.67882   21.85283
     C61    26.78332   28.47179   22.77947
     N62    24.62291   29.16750   22.04388
     C63    23.55108   29.95736   22.34749
     H64    17.71987   29.48696   20.77376
     H65    21.37994   31.60330   22.33178
     H66    29.70804   25.50693   23.35386
     N67    25.74607   29.40070   22.70775
     H68    22.61338   27.54258   21.52391
     C69    30.58937   25.73870   23.93347
     N70    27.87262   28.74376   23.56120
     N71    28.68777   27.79274   23.81506
     H72    31.60068   23.96799   23.25289
     C73    31.66461   24.78479   23.95656
     C74    29.68987   27.99209   24.64700
     H75    33.95826   23.80902   25.90771
     C76    30.64065   26.86851   24.77491
     H77    27.95830   29.66984   23.95509
     H78    23.51594   30.68147   23.16145
     H79    25.81388   30.16775   23.36131
     N80    32.69806   24.92926   24.82620
     C81    33.89378   24.14470   24.87269
     H82    30.04760   28.92817   25.07582
     C83    31.64972   26.95598   25.75292
     C84    32.65746   25.96606   25.68703
     H85    31.65987   27.83243   26.38390
     H86    33.52200   26.10535   26.31915
     H87    34.77815   24.77826   24.80496
     H88    20.22614   27.01125   21.02249
     H89    16.21992   23.89440   21.80536
     C90    16.67375   23.66941   20.84022
     N91    17.60108   22.54627   21.01842
     O92    24.27320   20.33263   22.31880
     C93    17.21181   21.27633   20.84388
     C94    18.87944   22.86316   21.28039
     H95    16.16936   21.20727   20.57016
     C96    18.13130   20.21126   21.02999
     C97    19.89553   21.82397   21.39239
     C98    19.51463   20.45097   21.33961
     C99    24.10216   19.15875   21.92351
    N100    21.87123   19.62447   21.47100
    C101    20.57027   19.35392   21.40733
    H102    15.78964   23.34751   20.28992
    H103    17.80865   19.18063   21.01986
    H104    28.44582   20.29156   22.18439
    N105    22.88030   18.79099   21.49423
    H106    20.93015   22.07132   21.57886
    C107    29.14574   19.60507   22.63743
    N108    25.08137   18.26848   21.85928
    N109    26.27988   18.67405   22.14150
    H110    30.78649   20.98022   22.76279
    C111    30.46633   19.95390   22.86561
    C112    27.26568   17.87283   22.55549
    C113    28.63177   18.33288   22.89192
    H114    24.88901   17.29884   21.65220
    H115    20.12060   18.36561   21.50287
    H116    22.76865   17.85787   21.12421
    N117    31.37899   19.02151   23.35424
    C118    32.88259   19.24936   23.45036
    H119    26.98443   16.88457   22.91927
    C120    29.54487   17.43728   23.54912
    C121    30.91299   17.77214   23.65826
    H122    29.12949   16.49708   23.88059
    H123    31.55020   16.98055   24.02399
    H124    19.23217   23.88311   21.32148
    C125    33.38946   19.90360   20.73202
    C126    34.71468   19.17111   20.52521
    H127    32.96373   20.21790   19.77909
    H128    32.62610   19.16472   20.97583
    H129    35.09225   18.85099   21.49632
    H130    35.43885   19.79964   20.00692
    H131    34.45545   18.23124   20.03783
    C132    34.65490   24.71514   22.12053
    C133    33.63616   25.63047   21.54184
    H134    35.22178   25.18267   22.92561
    H135    35.41624   24.66975   21.34181
    H136    33.17504   25.20663   20.64975
    H137    34.13747   26.56730   21.29861
    H138    32.88404   25.92705   22.27290
    C139    33.20256   21.33577   25.60640
    C140    31.87065   21.83967   26.12778
    H141    33.25437   20.26411   25.79865
    H142    33.97364   21.71098   26.27927
    H143    31.71608   21.70123   27.19785
    H144    30.91357   21.51261   25.72141
    H145    31.84830   22.92915   26.15316
    C146    17.06143   23.83959   17.96361
    C147    18.32226   23.08925   17.40253
    H148    16.35581   24.11031   17.17817
    H149    16.54800   23.02638   18.47662
    H150    17.97620   22.15658   16.95705
    H151    18.93176   22.96329   18.29738
    H152    18.86307   23.68031   16.66342
    C153    17.94758   28.78054   18.36056
    C154    16.70490   29.62691   18.18641
    H155    18.28597   28.66827   17.33051
    H156    18.80529   29.28578   18.80460
    H157    16.96673   30.57441   17.71547
    H158    16.24859   29.96723   19.11596
    H159    15.96354   29.17270   17.52900
    C160    17.49423   26.00140   22.57551
    C161    16.10017   26.23678   23.16733
    H162    17.95696   25.08366   22.93846
    H163    18.12121   26.77145   23.02498
    H164    15.66801   27.22075   22.98524
    H165    16.04591   26.27514   24.25530
    H166    15.33583   25.60098   22.72051
    H167    33.27957   18.93598   24.41591
    H168    33.41927   18.53101   22.83064
      S1    22.37973   21.05987   13.41887
      O2    22.95686   21.50503   14.69627
      O3    21.76450   22.15365   12.66659
      O4    21.38413   20.08910   13.73525
      O5    23.30832   20.37617   12.54660
      S1    27.64273   21.96291   11.44923
      O2    27.09743   23.18929   11.90755
      O3    26.61000   20.97995   11.39364
      O4    28.65510   21.51610   12.41117
      O5    28.21234   22.07227   10.12040

