186
frame 66 | Written by MDAnalysis XYZWriter (release 1.1.1)
      C1    22.28630   22.70852   19.53621
      O2    22.74827   23.23478   20.55940
      N3    20.96805   22.65797   19.28041
      N4    23.01530   22.18781   18.55123
      N5    19.98087   23.19286   19.97295
      C6    18.70058   23.12223   19.56396
      C7    17.57701   23.68418   20.43978
      H8    18.25554   22.66626   18.67958
      H9    20.69531   22.35411   18.35663
     N10    24.32023   22.26133   18.68944
     H11    22.62320   21.84332   17.68655
     C12    25.11029   21.79611   17.68932
     C13    26.56759   22.02506   17.86003
     H14    24.85344   21.37393   16.71778
     C15    17.77909   24.00041   21.78229
     C16    16.32970   23.90200   19.84159
     C17    16.76513   24.66485   22.51848
     N18    15.55066   24.86421   21.94625
     C19    15.36001   24.60134   20.59956
     H20    18.74716   23.84411   22.23485
     H21    16.96995   24.97518   23.53246
     H22    16.18507   23.67426   18.79583
     H23    14.46740   24.93603   20.09200
     C24    14.41850   25.38181   22.76587
     C25    14.54971   24.99743   24.22217
     H26    13.56189   24.91051   22.28400
     H27    14.30668   26.44762   22.56679
     C28    14.36946   23.65664   24.58714
     C29    14.78518   23.31455   25.91851
     C30    15.18276   24.28521   26.88603
     C31    15.34555   25.66607   26.45592
     C32    14.93786   26.02267   25.10313
     C33    27.47831   22.19754   16.76237
     C34    27.14133   21.96335   19.16206
     C35    28.48079   22.42092   19.35944
     C36    28.82659   22.60955   17.05644
     N37    29.27403   22.75212   18.31109
     H38    27.12744   22.22206   15.74125
     H39    29.54691   22.82379   16.28078
     H40    26.55314   21.74179   20.04033
     H41    28.80947   22.42426   20.38820
     C42    30.74609   23.15145   18.48352
     C43    31.17723   23.01242   19.93305
     H44    30.87668   24.16211   18.09671
     H45    31.32757   22.50850   17.82278
     C46    31.25540   21.69535   20.56410
     C47    31.32178   21.55000   21.99850
     C48    31.60305   22.68695   22.76620
     C49    31.61446   24.01125   22.15688
     C50    31.38501   24.18079   20.74334
     H51    15.39707   26.36300   28.48281
     C52    15.68204   26.72358   27.49444
     N53    17.15663   27.02771   27.58946
     O54    23.75322   26.94658   25.19690
     C55    17.51166   28.01183   28.45650
     C56    18.04594   26.52535   26.75527
     H57    16.80552   28.26297   29.23412
     C58    18.74144   28.61871   28.48239
     C59    19.38105   26.94244   26.81002
     C60    19.73595   28.01008   27.69772
     C61    24.09003   27.90854   25.94825
     N62    22.05495   27.87557   26.94267
     C63    21.16936   28.53798   27.70317
     H64    15.09967   27.60530   27.22698
     H65    18.95722   29.39034   29.20656
     H66    27.46544   25.61235   24.31243
     N67    23.21645   28.45573   26.79272
     H68    20.13229   26.45168   26.20902
     C69    28.44699   26.05490   24.22807
     N70    25.34148   28.29760   25.97355
     N71    26.30217   27.57527   25.46978
     H72    29.43767   24.37251   23.32407
     C73    29.52887   25.40313   23.63375
     C74    27.49556   28.14250   25.30776
     H75    32.63973   25.02899   23.70752
     C76    28.64606   27.40765   24.69529
     H77    25.56706   29.21663   26.32653
     H78    21.29460   29.50656   28.18718
     H79    23.45312   29.25914   27.35719
     N80    30.77423   25.96117   23.55618
     C81    31.91542   25.24687   22.92266
     H82    27.74859   29.15742   25.61438
     C83    29.90611   28.00419   24.56707
     C84    30.98355   27.24063   23.96119
     H85    29.98313   29.01308   24.94472
     H86    31.94617   27.70130   23.79528
     H87    32.47343   25.92754   22.27969
     H88    17.70160   25.69149   26.16154
     H89    15.20418   21.60954   27.24491
     C90    15.01279   21.86075   26.20166
     N91    16.15805   21.20964   25.50865
     O92    22.71110   20.76176   22.72204
     C93    16.21881   19.85352   25.41486
     C94    17.08741   21.93830   24.85606
     H95    15.65063   19.22128   26.08107
     C96    17.06425   19.15155   24.57364
     C97    18.04627   21.34885   24.05381
     C98    18.08514   19.92651   23.87097
     C99    22.46601   19.87508   21.90048
    N100    20.27398   19.91463   22.62182
    C101    19.10199   19.29841   22.97660
    H102    14.09554   21.29499   26.03833
    H103    17.12175   18.07565   24.64798
    H104    26.63159   20.90812   22.75640
    N105    21.21589   19.36899   21.88079
    H106    18.80170   21.95434   23.57515
    C107    27.39924   20.22739   22.41919
    N108    23.45539   19.22127   21.23668
    N109    24.72445   19.55636   21.55442
    H110    28.95406   21.41603   23.29995
    C111    28.74232   20.50066   22.76735
    C112    25.72287   18.61853   21.35801
    C113    27.12647   19.02458   21.67661
    H114    23.31012   18.61318   20.44344
    H115    18.78019   18.29838   22.68594
    H116    20.94848   18.79621   21.09306
    N117    29.74809   19.73062   22.42095
    C118    31.10414   20.21266   22.60724
    H119    25.74987   17.58681   21.00741
    C120    28.20671   18.15766   21.45352
    C121    29.50397   18.50739   21.85744
    H122    28.06697   17.22260   20.93147
    H123    30.23000   17.74047   21.63134
    H124    17.14160   23.00326   25.02732
    C125    31.29682   20.44625   19.71736
    C126    32.80619   20.03722   19.51781
    H127    30.88203   20.64271   18.72869
    H128    30.77187   19.58425   20.12904
    H129    33.26407   20.81133   18.90201
    H130    32.79799   19.09962   18.96197
    H131    33.38836   19.95614   20.43575
    C132    31.08155   25.54804   20.18263
    C133    29.53449   25.79930   20.05347
    H134    31.57421   26.37962   20.68649
    H135    31.46336   25.78025   19.18845
    H136    29.02562   25.16951   19.32372
    H137    29.36941   26.80993   19.68002
    H138    29.05466   25.67776   21.02460
    C139    31.97651   22.54918   24.23252
    C140    30.73399   22.47905   25.21114
    H141    32.52935   21.62040   24.37338
    H142    32.67392   23.32791   24.54120
    H143    30.26859   21.49809   25.30718
    H144    29.90751   23.16120   25.01188
    H145    31.10625   22.67271   26.21713
    C146    13.56636   22.67873   23.72924
    C147    14.42446   21.81322   22.83021
    H148    12.81768   23.27830   23.21146
    H149    12.97452   22.07578   24.41791
    H150    14.99738   22.43008   22.13786
    H151    13.77571   21.16727   22.23862
    H152    15.17464   21.22167   23.35500
    C153    15.15314   27.43726   24.65881
    C154    13.85347   28.15401   24.55243
    H155    15.61763   27.41260   23.67304
    H156    15.80432   28.00502   25.32342
    H157    13.34740   28.20839   25.51630
    H158    13.14368   27.58436   23.95259
    H159    13.89432   29.18573   24.20314
    C160    15.64268   23.83044   28.26122
    C161    14.44425   23.25964   29.01500
    H162    16.47350   23.12866   28.18815
    H163    15.99071   24.58969   28.96159
    H164    14.53559   23.09923   30.08925
    H165    14.06766   22.28720   28.69776
    H166    13.64267   23.97687   28.83851
    H167    31.31116   20.11907   23.67330
    H168    31.79717   19.54919   22.08992
      P1    21.23196   17.23047   18.64970
      O2    22.69334   16.78769   18.65719
      O3    20.47495   16.52504   19.75420
      H4    20.40315   15.58913   19.70385
      O5    20.55641   17.00257   17.25816
      O6    21.34272   18.75876   18.83401
      P1    30.82479   14.96570   16.40403
      O2    30.33767   13.48438   16.21668
      O3    31.36321   15.60945   15.16607
      H4    32.28566   15.46008   15.06422
      O5    31.91742   14.98207   17.43927
      O6    29.71583   15.83915   16.96296
      P1    21.89190   32.64389   29.87473
      O2    23.25340   33.14955   29.44291
      O3    21.10952   32.17177   28.66489
      H4    21.71106   31.85784   28.01435
      O5    21.11072   33.77774   30.60768
      O6    22.06295   31.48387   30.91259

