173
frame 773 | Written by MDAnalysis XYZWriter (release 1.1.1)
      C1    24.07755   26.42061   18.68347
      O2    23.51432   27.22764   19.42094
      N3    23.41604   25.74533   17.74945
      N4    25.36200   26.13631   18.70483
      N5    22.11066   25.89283   17.62791
      C6    21.44106   25.15614   16.70194
      C7    19.94967   25.15142   16.62360
      H8    21.93500   24.37287   16.12695
      H9    23.88440   24.92489   17.39223
     N10    26.08125   26.60479   19.68805
     H11    25.84551   25.65306   17.96133
     C12    27.36939   26.31997   19.76432
     C13    27.99582   26.57524   21.05129
     H14    27.87922   25.54330   19.19426
     C15    19.11989   25.12324   17.81916
     C16    19.34405   25.23606   15.31073
     C17    17.73689   25.25399   17.56269
     N18    17.18287   25.24752   16.34077
     C19    17.94375   25.29661   15.23835
     H20    19.58918   25.10466   18.79170
     H21    17.11380   25.32345   18.44208
     H22    19.88273   25.28287   14.37584
     H23    17.45074   25.30269   14.27747
     C24    15.76079   25.45167   16.13935
     C25    14.86190   25.34675   17.35143
     H26    15.49115   24.89352   15.24276
     H27    15.71478   26.49300   15.82057
     C28    14.58257   24.09500   17.92754
     C29    13.84482   23.97317   19.16032
     C30    13.32056   25.18233   19.78652
     C31    13.66742   26.44112   19.21251
     C32    14.47333   26.55140   18.03712
     C33    29.19009   27.28260   21.10077
     C34    27.48499   26.10028   22.30958
     C35    28.10199   26.40383   23.55204
     C36    29.75663   27.53143   22.35439
     N37    29.32783   27.07604   23.50944
     H38    29.75701   27.65154   20.25882
     H39    30.70104   28.05506   22.33711
     H40    26.50563   25.65107   22.23572
     H41    27.60874   26.13054   24.47314
     C42    30.23296   27.09664   24.70118
     C43    29.47101   26.68767   25.99700
     H44    30.70317   28.07204   24.82607
     H45    31.07826   26.42272   24.56197
     C46    29.34280   25.32313   26.33970
     C47    28.73475   24.92034   27.60013
     C48    28.17274   25.92374   28.44438
     C49    28.37183   27.32164   28.13891
     C50    29.01804   27.66029   26.93857
     H51    12.17714   27.46734   20.24819
     C52    13.16845   27.68188   19.84897
     N53    14.05189   28.29482   20.89141
     O54    20.31300   29.04648   24.49092
     C55    13.59834   29.27358   21.69515
     C56    15.34290   27.77316   21.09392
     H57    12.57394   29.60360   21.60512
     C58    14.31467   29.75547   22.82600
     C59    16.07410   28.19939   22.23490
     C60    15.53532   29.15756   23.12527
     C61    19.67561   29.47893   25.47028
     N62    17.73125   29.45802   24.32334
     C63    16.36227   29.53623   24.32566
     H64    12.85969   28.49072   19.18675
     H65    13.95032   30.53332   23.48067
     H66    23.94566   28.01202   26.37745
     N67    18.33347   29.71478   25.44502
     H68    17.08132   27.86357   22.43275
     C69    24.34552   28.27215   27.34639
     N70    20.23809   29.62222   26.65400
     N71    21.50445   29.25070   26.81941
     H72    26.25990   27.35168   26.96933
     C73    25.69407   27.98115   27.64015
     C74    22.15928   29.38701   28.05200
     H75    27.99886   28.02212   30.04407
     C76    23.56856   28.98316   28.28830
     H77    19.67109   29.99243   27.40337
     H78    15.73439   29.93009   25.12487
     H79    17.82143   29.87019   26.30162
     N80    26.31517   28.50772   28.75533
     C81    27.77537   28.32446   29.02097
     H82    21.70271   29.66637   29.00153
     C83    24.17430   29.45350   29.45305
     C84    25.56477   29.24484   29.60306
     H85    23.74942   30.15608   30.15465
     H86    25.94633   29.73262   30.48787
     H87    28.25845   29.30062   29.06395
     H88    15.80738   27.02847   20.46455
     H89    12.75917   22.56176   20.40405
     C90    13.64828   22.62537   19.77673
     N91    14.75576   22.17443   20.60403
     O92    20.92598   22.46618   24.35628
     C93    14.59648   20.97204   21.20530
     C94    15.86658   22.89242   20.91869
     H95    13.76535   20.32322   20.97152
     C96    15.57039   20.39936   22.08824
     C97    16.81828   22.40014   21.89763
     C98    16.67278   21.13037   22.50682
     C99    20.65242   21.46945   24.97998
    N100    18.75470   21.24634   23.78527
    C101    17.70669   20.53851   23.38538
    H102    13.45066   21.83405   19.05363
    H103    15.39271   19.40716   22.47601
    H104    24.72203   22.90467   25.49665
    N105    19.51373   20.77595   24.71290
    H106    17.67543   23.01282   22.13493
    C107    25.26705   22.61050   26.38142
    N108    21.30130   21.06162   26.07039
    N109    22.43627   21.60621   26.27533
    H110    26.92335   23.90728   25.95082
    C111    26.52837   23.18731   26.65227
    C112    23.36627   21.01803   27.01001
    C113    24.71257   21.63355   27.27819
    H114    21.06433   20.22211   26.57949
    H115    17.43129   19.53130   23.69808
    H116    19.35094   19.89158   25.17278
    N117    27.28643   22.84482   27.75570
    C118    28.56997   23.45911   28.06656
    H119    23.35017   19.99039   27.37307
    C120    25.57393   21.21263   28.34865
    C121    26.85286   21.77622   28.50567
    H122    25.27711   20.36479   28.94821
    H123    27.48357   21.37519   29.28527
    H124    16.01255   23.88448   20.51755
    C125    29.79420   24.17334   25.45433
    C126    31.26854   23.84704   25.67841
    H127    29.62969   24.47578   24.42013
    H128    29.18189   23.27746   25.55713
    H129    31.85800   24.75352   25.54081
    H130    31.75316   23.21587   24.93351
    H131    31.51658   23.49301   26.67903
    C132    29.45742   29.10676   26.76326
    C133    28.64831   29.72341   25.63313
    H134    29.41592   29.68547   27.68601
    H135    30.50054   29.18399   26.45662
    H136    29.04378   30.73347   25.52596
    H137    27.57330   29.67066   25.80544
    H138    28.80841   29.23118   24.67387
    C139    27.33063   25.52409   29.64295
    C140    25.90628   25.17627   29.38472
    H141    27.74290   24.68792   30.20772
    H142    27.22400   26.27879   30.42216
    H143    25.75497   24.10201   29.27902
    H144    25.60171   25.64166   28.44730
    H145    25.16377   25.46313   30.12936
    C146    14.76583   22.93961   16.99699
    C147    16.12542   22.20374   17.18137
    H148    14.75805   23.21188   15.94157
    H149    13.92121   22.25584   17.08157
    H150    16.20214   21.40285   16.44599
    H151    16.24533   21.91214   18.22478
    H152    16.87586   22.94211   16.89897
    C153    14.82714   27.91581   17.59667
    C154    13.88247   28.42230   16.45252
    H155    15.88401   27.91477   17.32998
    H156    14.70185   28.71634   18.32574
    H157    12.81871   28.23987   16.60496
    H158    14.21538   28.16310   15.44749
    H159    13.93816   29.51088   16.45455
    C160    12.46496   25.07148   21.02252
    C161    10.99561   24.64707   20.68848
    H162    12.97024   24.40472   21.72125
    H163    12.42030   25.96809   21.64073
    H164    10.99699   23.82752   19.96984
    H165    10.50576   25.48755   20.19679
    H166    10.43061   24.41733   21.59186
    H167    28.79965   23.38068   29.12921
    H168    29.26299   22.78625   27.56150
      S1    28.09925   20.07910   18.71733
      O2    28.48100   20.60166   17.37472
      O3    28.45248   21.09270   19.71274
      O4    28.84679   18.91578   19.13885
      O5    26.68865   19.87551   18.82598

