173
frame 916 | Written by MDAnalysis XYZWriter (release 1.1.1)
      C1    23.82477   25.81114   19.66944
      O2    23.21845   25.73666   20.75135
      N3    23.10741   25.67610   18.53299
      N4    25.11781   26.10247   19.59982
      N5    21.77845   25.53394   18.41364
      C6    21.11986   25.77314   17.27896
      C7    19.63354   25.57463   17.17683
      H8    21.57740   26.12416   16.35401
      H9    23.60708   25.75204   17.65854
     N10    25.84089   25.92047   20.68237
     H11    25.62129   26.30338   18.74762
     C12    27.20060   26.04155   20.62692
     C13    27.99955   25.85557   21.86563
     H14    27.74818   26.27880   19.71480
     C15    18.79588   25.84677   18.25438
     C16    19.07493   25.23583   15.94055
     C17    17.40127   25.74395   18.10441
     N18    16.88303   25.42706   16.87532
     C19    17.66732   25.14345   15.80336
     H20    19.16428   26.19810   19.20687
     H21    16.78850   25.88650   18.98224
     H22    19.75433   24.99850   15.13526
     H23    17.23409   24.84659   14.85966
     C24    15.48353   25.44833   16.62507
     C25    14.57868   25.52474   17.78535
     H26    15.27470   24.57288   16.01019
     H27    15.17447   26.29580   16.01320
     C28    13.94644   24.41314   18.38345
     C29    13.16984   24.54033   19.55819
     C30    13.05771   25.84241   20.13576
     C31    13.56095   26.99011   19.50808
     C32    14.29262   26.83306   18.29922
     C33    29.41361   25.99034   21.86598
     C34    27.46088   25.40157   23.06256
     C35    28.22450   24.99391   24.12980
     C36    30.17407   25.62127   23.00526
     N37    29.59900   25.16585   24.14700
     H38    29.87112   26.29807   20.93733
     H39    31.25254   25.62827   23.06241
     H40    26.41274   25.17214   23.18575
     H41    27.69702   24.58196   24.97742
     C42    30.48347   24.93501   25.30225
     C43    29.79728   24.71161   26.65804
     H44    31.21229   25.74018   25.39505
     H45    31.19012   24.12986   25.10108
     C46    29.26497   23.38420   26.96712
     C47    28.44816   23.17436   28.07740
     C48    28.13267   24.33840   28.87784
     C49    28.67065   25.62268   28.62130
     C50    29.56809   25.78015   27.49309
     H51    12.45825   28.39835   20.74438
     C52    13.39243   28.35168   20.18472
     N53    14.55250   28.82786   21.06882
     O54    20.95551   27.67417   24.37440
     C55    14.34205   29.80572   21.99783
     C56    15.76317   28.23127   20.93674
     H57    13.36644   30.26397   22.06548
     C58    15.33391   30.19194   22.92393
     C59    16.76018   28.50212   21.86164
     C60    16.55727   29.52440   22.83387
     C61    20.85961   28.81317   24.84835
     N62    18.90315   29.27764   23.72112
     C63    17.69248   29.87484   23.77139
     H64    13.24842   29.13815   19.44390
     H65    15.07229   30.88146   23.71293
     H66    24.80340   27.13301   26.18648
     N67    19.87901   29.64731   24.49516
     H68    17.67505   27.94031   21.74428
     C69    25.09778   27.38970   27.19338
     N70    21.54936   29.21718   25.89940
     N71    22.50952   28.49346   26.42103
     H72    26.86640   26.27299   26.96236
     C73    26.32108   26.91389   27.63931
     C74    23.07924   28.91587   27.59866
     H75    28.12010   26.71331   30.44166
     C76    24.30210   28.19170   28.03037
     H77    21.32809   30.09296   26.35123
     H78    17.41950   30.58301   24.55374
     H79    19.81275   30.48105   25.06137
     N80    26.81059   27.26928   28.87951
     C81    28.14355   26.85586   29.36127
     H82    22.96576   29.93521   27.96766
     C83    24.78947   28.46478   29.31919
     C84    26.00238   27.95670   29.73718
     H85    24.07737   28.98714   29.94084
     H86    26.16833   28.03723   30.80131
     H87    28.75196   27.75372   29.25279
     H88    15.96609   27.47084   20.19717
     H89    11.82554   23.48614   20.84287
     C90    12.75198   23.30672   20.29733
     N91    13.74348   22.68630   21.23931
     O92    20.36841   22.00836   24.40183
     C93    13.44076   21.50311   21.79409
     C94    14.94117   23.26346   21.55960
     H95    12.56423   20.98690   21.43130
     C96    14.39884   20.80954   22.63483
     C97    15.82994   22.65027   22.43483
     C98    15.57236   21.42070   23.03436
     C99    19.97101   20.96905   24.86921
    N100    17.84997   21.08205   23.84973
    C101    16.57663   20.80438   23.96490
    H102    12.26139   22.61262   19.61495
    H103    14.25048   19.78432   22.94031
    H104    24.38587   21.90850   25.65003
    N105    18.70906   20.52981   24.67286
    H106    16.74815   23.18348   22.63221
    C107    24.68136   21.57980   26.63544
    N108    20.77257   20.27211   25.68915
    N109    21.90385   20.81475   26.05544
    H110    26.49909   22.63961   26.38633
    C111    25.94194   21.99998   27.05479
    C112    22.68003   20.08983   26.91440
    C113    23.96473   20.60970   27.34638
    H114    20.49936   19.40361   26.12637
    H115    16.09057   20.03506   24.56489
    H116    18.42515   19.68390   25.14608
    N117    26.51559   21.46680   28.18194
    C118    27.92413   21.79255   28.53260
    H119    22.58847   19.04812   27.22189
    C120    24.53785   20.13699   28.55268
    C121    25.84338   20.48580   28.86754
    H122    24.01488   19.40105   29.14539
    H123    26.28194   20.02831   29.74204
    H124    15.15228   24.26239   21.20750
    C125    29.51901   22.24875   26.06985
    C126    30.89697   21.61059   26.39138
    H127    29.59149   22.59602   25.03919
    H128    28.70132   21.52890   26.10596
    H129    31.75231   22.28380   26.33409
    H130    31.13599   20.84349   25.65482
    H131    30.88053   21.10733   27.35810
    C132    30.26166   27.12473   27.25492
    C133    29.46744   27.96564   26.30948
    H134    30.40988   27.65576   28.19521
    H135    31.30602   26.99816   26.96963
    H136    29.82957   27.87627   25.28528
    H137    29.70679   28.99634   26.57112
    H138    28.38868   27.85525   26.41989
    C139    27.24569   24.14871   30.07163
    C140    25.76066   24.34364   29.71391
    H141    27.39746   23.18030   30.54835
    H142    27.60895   24.76531   30.89378
    H143    25.44554   23.52396   29.06821
    H144    25.47009   25.20750   29.11607
    H145    25.10127   24.31767   30.58145
    C146    14.31028   23.09834   17.78609
    C147    15.64262   22.47652   18.27263
    H148    14.23191   23.17817   16.70184
    H149    13.50860   22.39705   18.01763
    H150    16.47753   23.08385   17.92307
    H151    15.64526   21.47839   17.83467
    H152    15.74776   22.32491   19.34690
    C153    14.72507   28.09210   17.55147
    C154    13.68974   28.56441   16.49927
    H155    15.74290   27.95352   17.18689
    H156    14.92989   28.92572   18.22319
    H157    13.92167   29.50773   16.00484
    H158    12.73933   28.79212   16.98194
    H159    13.53770   27.81323   15.72421
    C160    12.57021   25.95040   21.55246
    C161    11.05359   26.17370   21.60708
    H162    12.82485   25.08448   22.16356
    H163    13.00489   26.75667   22.14329
    H164    10.52713   25.30861   21.20387
    H165    10.92445   27.10467   21.05507
    H166    10.76614   26.30753   22.64994
    H167    28.07085   21.64887   29.60308
    H168    28.67002   21.06670   28.20873
      S1    27.58630   18.78653   18.13025
      O2    27.55856   19.54882   16.85409
      O3    27.28767   19.70048   19.22626
      O4    28.92275   18.20486   18.34508
      O5    26.48885   17.84105   17.95788

