173
frame 448 | Written by MDAnalysis XYZWriter (release 1.1.1)
      C1    23.44222   26.64276   20.61954
      O2    22.85538   27.11718   21.63302
      N3    22.74432   26.11877   19.60907
      N4    24.79462   26.52002   20.64006
      N5    21.45134   26.17084   19.58242
      C6    20.81112   25.31760   18.77782
      C7    19.34687   25.20231   18.73342
      H8    21.37132   24.63862   18.13498
      H9    23.24086   25.52901   18.95659
     N10    25.42749   26.77124   21.79294
     H11    25.28137   26.15078   19.83580
     C12    26.78075   26.68182   21.71539
     C13    27.62716   26.89366   22.91051
     H14    27.27821   26.39747   20.78815
     C15    18.56915   25.05565   19.89707
     C16    18.74585   25.16280   17.44763
     C17    17.19945   24.91658   19.79567
     N18    16.58146   24.91598   18.60221
     C19    17.35022   25.08757   17.45392
     H20    19.05448   25.03492   20.86165
     H21    16.63501   24.91230   20.71643
     H22    19.31826   25.20653   16.53284
     H23    16.88035   25.12853   16.48236
     C24    15.11049   24.98081   18.52277
     C25    14.41656   24.67939   19.85260
     H26    14.71779   24.36977   17.71005
     H27    14.95850   26.00621   18.18582
     C28    14.24201   23.33072   20.27481
     C29    13.77384   23.11789   21.61559
     C30    13.37185   24.22223   22.45078
     C31    13.49187   25.56017   21.98410
     C32    14.05467   25.81819   20.69961
     C33    29.00424   27.14960   22.84650
     C34    27.15266   26.76280   24.22583
     C35    27.94165   26.91019   25.34543
     C36    29.80629   27.28880   24.01588
     N37    29.29376   27.05359   25.27032
     H38    29.40104   27.25740   21.84784
     H39    30.87983   27.40120   24.05143
     H40    26.17038   26.37067   24.44440
     H41    27.53370   26.61606   26.30118
     C42    30.18056   27.01089   26.46620
     C43    29.60909   26.59417   27.84955
     H44    30.73263   27.94739   26.54552
     H45    31.01645   26.33127   26.30032
     C46    29.57943   25.20109   28.15275
     C47    29.19458   24.71415   29.45350
     C48    28.85916   25.65919   30.46034
     C49    28.79659   27.06462   30.12549
     C50    29.17426   27.52468   28.85044
     H51    12.11348   26.47382   23.44549
     C52    13.01545   26.69177   22.87360
     N53    14.03973   27.25893   23.81474
     O54    20.29700   27.63502   27.10711
     C55    13.60155   28.22053   24.62080
     C56    15.32935   26.81925   23.81666
     H57    12.55968   28.44641   24.79366
     C58    14.51524   28.87016   25.49195
     C59    16.23198   27.45251   24.65677
     C60    15.84884   28.52880   25.48703
     C61    19.97978   28.61334   27.75990
     N62    17.95578   28.71272   26.66321
     C63    16.85038   29.35910   26.29881
     H64    12.63338   27.50697   22.25914
     H65    14.16460   29.63448   26.16965
     H66    23.87244   26.95290   29.63960
     N67    18.81590   29.24093   27.47002
     H68    17.25058   27.09692   24.70592
     C69    24.53484   27.71280   30.02714
     N70    20.80926   29.15578   28.71240
     N71    22.04789   28.81783   28.83290
     H72    26.26481   26.47343   30.42437
     C73    25.89176   27.48264   30.33092
     C74    22.63515   29.36723   29.90144
     H75    28.15404   27.59098   32.08953
     C76    24.02733   29.00933   30.32373
     H77    20.57010   30.04382   29.12988
     H78    16.60980   30.38519   26.57694
     H79    18.59565   30.17480   27.78543
     N80    26.69362   28.45438   30.83991
     C81    28.11364   28.05453   31.10383
     H82    22.16968   30.03024   30.63073
     C83    24.89055   29.94770   30.91108
     C84    26.23576   29.68136   31.09716
     H85    24.53574   30.93748   31.15779
     H86    26.94145   30.43354   31.41750
     H87    28.73372   28.93961   31.24607
     H88    15.61548   25.98188   23.19752
     H89    12.75116   21.66234   22.65578
     C90    13.73615   21.74813   22.19692
     N91    14.88375   21.46967   23.18552
     O92    21.36337   21.99557   25.95889
     C93    14.76924   20.27448   23.80396
     C94    15.97712   22.27466   23.40612
     H95    13.99629   19.57779   23.51487
     C96    15.75950   19.78406   24.68895
     C97    17.03059   21.74146   24.17406
     C98    16.88848   20.53452   24.87565
     C99    21.26757   20.92617   26.50226
    N100    19.14485   20.57920   25.74792
    C101    17.95839   20.00115   25.73444
    H102    13.81256   20.95002   21.45849
    H103    15.54586   18.80677   25.09595
    H104    24.80662   23.21790   28.40206
    N105    20.20548   20.11446   26.37257
    H106    17.91883   22.34155   24.30568
    C107    25.65417   22.63324   28.72797
    N108    22.19430   20.49436   27.37798
    N109    23.17908   21.25129   27.87620
    H110    26.93176   24.33995   29.20611
    C111    26.79733   23.26835   29.20584
    C112    24.24698   20.49334   28.26193
    C113    25.53924   21.20142   28.62760
    H114    22.02121   19.61693   27.84730
    H115    17.64745   19.05705   26.18176
    H116    20.21811   19.24953   26.89395
    N117    27.89854   22.54338   29.43483
    C118    29.18022   23.20968   29.75685
    H119    24.30821   19.40928   28.35772
    C120    26.78329   20.48717   28.94666
    C121    27.88263   21.18903   29.38249
    H122    26.91266   19.42848   28.77681
    H123    28.78431   20.65644   29.64655
    H124    16.07970   23.27521   23.01270
    C125    30.06413   24.18340   27.11801
    C126    31.51036   23.82569   27.33504
    H127    29.82062   24.57535   26.13050
    H128    29.43962   23.30281   27.26849
    H129    32.18999   24.59291   26.96412
    H130    31.67526   22.95253   26.70377
    H131    31.76131   23.61503   28.37463
    C132    29.18354   29.06757   28.56396
    C133    27.91450   29.52538   27.87660
    H134    29.31410   29.71553   29.43069
    H135    30.05558   29.31362   27.95807
    H136    27.88187   29.19300   26.83902
    H137    27.85151   30.60265   27.72288
    H138    27.01604   29.04650   28.26588
    C139    28.65997   25.14729   31.89130
    C140    27.16162   24.96551   32.33835
    H141    29.27571   24.29725   32.18523
    H142    28.99030   25.91954   32.58600
    H143    27.09393   24.70607   33.39486
    H144    26.70044   24.13459   31.80450
    H145    26.53105   25.84034   32.17974
    C146    14.59713   22.14495   19.40002
    C147    15.93281   21.54465   19.70086
    H148    14.54935   22.39829   18.34094
    H149    13.82010   21.38071   19.41628
    H150    16.72932   22.23588   19.42541
    H151    16.09841   20.64384   19.10992
    H152    16.07973   21.28756   20.74987
    C153    14.20560   27.24664   20.23838
    C154    13.07444   27.75012   19.49538
    H155    15.01740   27.42803   19.53397
    H156    14.35958   27.91269   21.08735
    H157    13.29425   28.77349   19.19123
    H158    12.18495   27.79440   20.12383
    H159    12.81787   27.23372   18.57039
    C160    12.88123   23.97587   23.85480
    C161    11.33351   23.75394   23.74813
    H162    13.39625   23.23209   24.46279
    H163    12.98232   24.90087   24.42247
    H164    11.11198   22.91502   23.08841
    H165    10.83380   24.65940   23.40383
    H166    10.88811   23.44113   24.69251
    H167    29.26940   22.99476   30.82173
    H168    30.01138   22.64275   29.33749
      S1    27.44086   21.13688   21.57923
      O2    27.13089   21.04414   20.15173
      O3    27.32380   22.48279   22.10909
      O4    28.81334   20.78810   21.61671
      O5    26.56758   20.16892   22.21164

