219
frame 257 | Written by MDAnalysis XYZWriter (release 1.1.1)
      C1    15.41767   32.30783   19.08113
      C2    14.79694   31.22407   19.74155
      C3    16.77599   32.42023   18.90192
      C4    17.62977   31.39170   19.42458
      C5    17.05129   30.35362   20.18400
      C6    15.62748   30.19646   20.27629
      H7    13.74407   31.21867   19.98205
      H8    14.79565   33.08824   18.66825
      H9    17.20227   33.30335   18.44938
     H10    17.71610   29.65684   20.67280
     C11    19.09719   31.51899   19.14335
     O12    19.42822   32.20814   18.16378
     N13    19.94852   30.88615   19.92719
     N14    21.28129   31.04729   20.03636
     C15    21.97560   30.34507   20.91658
     C16    15.12137   28.95508   20.99449
     O17    15.96301   28.17256   21.43512
     N18    13.79515   28.66549   20.93087
     N19    13.37949   27.56497   21.53664
     C20    12.10891   27.14604   21.47180
     C21    11.71342   26.00335   22.24548
     H22    11.24213   27.64201   21.03499
     C23    12.19720   25.92185   23.56045
     C24    12.07005   24.71782   24.30922
     N25    11.61691   23.59989   23.70150
     C26    10.97023   23.70472   22.53126
     C27    11.06040   24.86862   21.69481
     H28    10.33954   22.89104   22.20485
     H29    10.67775   25.05415   20.70206
     C30    11.77375   22.20814   24.22872
     C31    23.45353   30.28653   20.87685
     H32    21.63139   29.50107   21.51432
     C33    24.09888   29.25076   21.52362
     C34    24.22588   31.38770   20.47807
     C35    25.61050   31.24803   20.54465
     N36    26.18755   30.26034   21.22352
     C37    25.50995   29.27251   21.73036
     H38    23.53153   28.41196   21.89904
     H39    26.05876   28.50228   22.25185
     C40    27.63793   30.42637   21.53689
     H41    19.55177   30.24279   20.59710
     H42    13.10613   29.39264   20.80204
     C43    28.35046   29.33647   22.33335
     H44    27.78220   31.40316   21.99861
     H45    28.20388   30.56964   20.61642
     C46    28.85006   28.13887   21.69826
     C47    29.34321   27.05791   22.47853
     C48    29.39615   27.18633   23.87301
     C49    29.01567   28.38933   24.46678
     C50    28.57323   29.48628   23.72799
     C51    12.95422   22.08431   25.18783
     H52    11.84227   21.45488   23.44386
     C53    14.26216   21.87226   24.68768
     C54    15.43134   21.90790   25.45407
     C55    15.20208   21.96845   26.89087
     C56    13.91679   22.16524   27.46612
     C57    12.79575   22.23305   26.58816
     C58    28.12345   30.80944   24.40028
     C59    26.61893   31.01598   24.58185
     H60    28.66548   30.91028   25.34056
     H61    28.50194   31.61522   23.77133
     H62    26.03641   30.91980   23.66560
     H63    26.47205   32.00487   25.01616
     H64    26.32363   30.27144   25.32116
     C65    28.75901   28.10044   20.18870
     C66    30.00587   28.22114   19.33285
     H67    27.98564   28.74324   19.76821
     H68    28.34899   27.11999   19.94646
     H69    30.45720   29.20988   19.41540
     H70    29.80077   28.19935   18.26254
     H71    30.78388   27.50337   19.59286
     C72    29.80765   25.99110   24.67934
     C73    31.34782   25.92288   24.70604
     H74    29.44757   25.03476   24.30005
     H75    29.42423   26.11020   25.69270
     H76    31.75149   25.84853   23.69627
     H77    31.62741   25.00125   25.21646
     H78    31.80956   26.79632   25.16648
     C79    14.47375   21.73937   23.16905
     C80    14.68065   23.03764   22.40993
     H81    13.69740   21.13172   22.70414
     H82    15.29964   21.05586   22.97206
     H83    15.41457   23.72089   22.83729
     H84    13.70147   23.51507   22.37293
     H85    15.04978   22.87658   21.39706
     C86    16.39370   21.74442   27.78350
     C87    17.09820   23.02328   28.34049
     H88    16.12897   21.03440   28.56701
     H89    17.14235   21.20188   27.20620
     H90    17.96922   22.76052   28.94081
     H91    16.58985   23.65050   29.07281
     H92    17.47498   23.66136   27.54113
     C93    11.48263   22.54640   27.19072
     C94    10.55432   21.30598   27.28577
     H95    10.94541   23.27391   26.58226
     H96    11.59365   22.97026   28.18878
     H97    10.49839   20.79316   26.32557
     H98     9.53407   21.65097   27.45361
     H99    10.76822   20.50954   27.99854
    H100    10.78502   21.98004   24.62683
    H101    26.16021   32.07718   20.12424
    H102    23.82090   32.31221   20.09377
    H103    12.47319   24.69259   25.31084
    H104    12.69486   26.77402   23.99924
    C105    29.18061   28.57329   25.97570
    N106    27.95103   28.43045   26.76127
    C107    27.95196   28.96202   27.97812
    C108    26.87077   27.77234   26.23255
    C109    26.72275   29.12961   28.68472
    C110    25.54844   28.52169   28.17699
    H111    28.84179   29.42514   28.37829
    C112    25.62487   27.73997   26.98643
    N113    24.17493   29.80964   29.64155
    H114    27.02528   27.24047   25.30538
    C115    24.29323   28.65149   28.93407
    H116    26.73718   29.69230   29.60644
    H117    24.75440   27.25714   26.56742
    H118    22.60013   29.05886   30.47408
    N119    23.08887   29.93133   30.33253
    H120    23.54512   27.87529   28.77299
    H121    13.42761   24.85627   27.48567
    C122    22.76057   31.14343   30.86260
    H123    14.41565   26.87444   28.10276
    O124    23.36977   32.19165   30.72375
    C125    13.96729   24.84128   28.42104
    H126    17.48701   29.41642   30.64321
    C127    14.57722   26.04247   28.77218
    C128    21.37687   31.14188   31.49181
    H129    20.71985   29.18351   30.90006
    C130    20.54560   30.04420   31.52875
    N131    17.58070   28.68771   31.33626
    N132    16.73779   27.66722   31.32918
    N133    14.00750   23.77475   29.29487
    C134    21.00283   32.31400   32.12710
    C135    15.13913   26.22273   30.06119
    H136    21.75440   33.08934   32.10748
    C137    19.33228   30.09782   32.25694
    C138    15.82120   27.50513   30.34249
    C139    18.50588   28.83920   32.34594
    C140    19.80917   32.37435   32.91941
    C141    14.39606   23.97140   30.58186
    C142    19.02234   31.20159   33.07184
    C143    15.01273   25.17220   31.00517
    H144    15.69551   28.14829   29.47148
    H145    19.50920   33.31838   33.34979
    O146    18.82418   27.91007   33.13969
    H147    14.36742   23.08169   31.19341
    H148    18.15505   31.25664   33.71308
    H149    15.38301   25.25595   32.01625
    C150    13.72490   22.39831   28.94873
    C151    29.88358   25.85341   21.76130
    N152    29.02686   24.63980   21.81961
    C153    29.53442   23.40037   21.46791
    C154    27.76280   24.70001   22.33394
    C155    28.68504   22.27962   21.21288
    C156    27.32661   22.39754   21.60114
    H157    30.59837   23.29754   21.31348
    C158    26.87999   23.60099   22.19915
    N159    26.78276   20.11652   20.81025
    H160    27.32110   25.62633   22.67043
    C161    26.40149   21.23447   21.44676
    H162    29.09280   21.40668   20.72493
    H163    25.84655   23.65984   22.50729
    H164    25.28105   19.04891   21.63350
    N165    25.94259   19.12875   20.87450
    H166    25.42653   21.34875   21.92058
    H167    18.91167   21.82161   23.48527
    C168    26.09159   18.14763   20.00658
    H169    20.63232   19.89365   23.41033
    O170    26.84902   18.17779   19.06123
    C171    18.71536   20.85198   23.91849
    H172    22.56333   16.82052   23.12343
    C173    19.64561   19.79202   23.83751
    C174    25.23583   16.92392   20.09761
    H175    23.65596   17.76490   21.42015
    C176    24.02848   16.90264   20.88711
    N177    21.75045   16.41534   22.68166
    N178    20.60820   17.02035   22.88489
    N179    17.62313   20.71480   24.66534
    C180    25.60300   15.73236   19.46928
    C181    19.32313   18.51470   24.37791
    H182    26.57744   15.64513   19.01183
    C183    23.13703   15.81734   20.78027
    C184    20.34101   17.43842   24.16460
    C185    21.81211   15.83606   21.44266
    C186    24.71235   14.66059   19.36403
    C187    17.29237   19.52144   25.18121
    C188    23.48912   14.69010   20.02703
    C189    18.16212   18.36733   25.10419
    H190    21.02214   17.40907   25.01507
    H191    25.05871   13.73367   18.93130
    O192    20.89497   15.26700   20.88949
    H193    16.36886   19.50092   25.74078
    H194    22.92142   13.77650   19.92983
    H195    17.96686   17.45485   25.64793
    C196    16.75579   21.97192   24.78881
    H197    14.47738   21.79180   29.45273
    H198    29.75724   29.47943   26.16148
    H199    17.28510   22.78701   25.28233
    H200    30.01988   26.04989   20.69785
    H201    30.91670   25.63636   22.03270
    H202    29.91722   27.88293   26.38668
    H203    12.75596   22.07502   29.32918
    H204    16.73415   22.57141   23.87873
      S1    26.42262   18.65524   30.77441
      O2    27.28750   18.10367   29.72406
      O3    26.75965   20.02845   31.11023
      O4    26.40049   17.82380   31.96021
      O5    25.03603   18.79218   30.35668
      S1    18.76518   31.91477   26.28036
      O2    17.78459   31.81947   25.22172
      O3    19.97120   32.37069   25.65919
      O4    18.95876   30.65766   26.92062
      O5    18.20984   32.82792   27.25827
      S1    21.56268   26.50181   22.41427
      O2    20.27272   27.17017   22.13417
      O3    21.34286   25.20372   23.04248
      O4    22.46586   27.18429   23.26492
      O5    22.27831   26.17235   21.23370

