219
frame 405 | Written by MDAnalysis XYZWriter (release 1.1.1)
      C1    17.96017   33.72726   18.47862
      C2    17.28408   32.68728   19.15448
      C3    19.30295   33.98479   18.63664
      C4    20.12264   33.10986   19.38742
      C5    19.47827   31.98571   19.98504
      C6    18.08574   31.69974   19.83137
      H7    16.22060   32.59998   18.98775
      H8    17.39414   34.36909   17.81978
      H9    19.79760   34.79794   18.12623
     H10    20.09568   31.28414   20.52634
     C11    21.61270   33.33028   19.54412
     O12    22.15645   34.00787   18.66752
     N13    22.23346   32.64180   20.49770
     N14    23.53363   32.63483   20.71155
     C15    24.08166   31.95313   21.71248
     C16    17.55460   30.55848   20.64740
     O17    18.22974   30.06217   21.54368
     N18    16.32276   30.07636   20.34274
     N19    15.83218   28.98093   20.84794
     C20    14.55126   28.66773   20.67588
     C21    13.99351   27.38256   21.29626
     H22    13.89867   29.19317   19.97865
     C23    14.30775   27.18794   22.63676
     C24    13.84059   25.97690   23.25272
     N25    13.32204   24.93296   22.52269
     C26    13.12078   25.08025   21.22354
     C27    13.45968   26.31281   20.60742
     H28    12.61666   24.33406   20.62733
     H29    13.20409   26.40842   19.56246
     C30    13.12552   23.52705   23.04547
     C31    25.54092   31.78880   21.96308
     H32    23.54082   31.49304   22.53946
     C33    26.06415   30.57513   22.38109
     C34    26.44298   32.85843   21.67204
     C35    27.82749   32.60353   21.91603
     N36    28.27503   31.47094   22.51472
     C37    27.47041   30.42864   22.65006
     H38    25.46981   29.68905   22.54847
     H39    27.74044   29.42067   22.92839
     C40    29.68635   31.41192   22.89110
     H41    21.63519   32.30315   21.23763
     H42    15.78397   30.60427   19.67109
     C43    30.12945   30.20332   23.67903
     H44    30.02125   32.29310   23.43834
     H45    30.25516   31.41346   21.96129
     C46    30.38786   29.02474   22.99197
     C47    30.80391   27.89483   23.71669
     C48    30.81737   27.86567   25.13784
     C49    30.47132   29.01407   25.91949
     C50    30.12936   30.20289   25.14323
     C51    14.11503   23.27964   24.19189
     H52    13.19382   22.72474   22.31080
     C53    15.50635   23.08046   23.97117
     C54    16.31170   22.99106   25.10372
     C55    15.76346   22.80061   26.42691
     C56    14.39288   23.00032   26.62143
     C57    13.56972   23.26475   25.49730
     C58    29.67238   31.43266   25.90617
     C59    28.10521   31.65339   25.86184
     H60    30.03016   31.43528   26.93577
     H61    30.11683   32.32528   25.46595
     H62    27.56887   30.71498   26.00270
     H63    27.72060   32.05986   24.92645
     H64    27.84892   32.31429   26.68987
     C65    30.38847   29.00027   21.46626
     C66    31.71695   29.51667   20.83136
     H67    29.53486   29.54544   21.06346
     H68    30.36052   27.97101   21.10858
     H69    31.96674   30.57268   20.93402
     H70    31.60493   29.24526   19.78164
     H71    32.56068   28.96402   21.24465
     C72    31.38992   26.68778   25.84995
     C73    32.86425   26.76362   26.11977
     H74    31.29736   25.81534   25.20313
     H75    30.82485   26.46400   26.75479
     H76    33.16828   25.89334   26.70139
     H77    33.22874   27.57058   26.75544
     H78    33.41235   26.80200   25.17838
     C79    16.07479   22.99050   22.58690
     C80    16.54245   24.30916   21.97689
     H81    15.40463   22.54365   21.85252
     H82    16.89477   22.29099   22.42434
     H83    16.96751   24.16881   20.98304
     H84    17.35262   24.81878   22.49845
     H85    15.69391   24.98653   21.88071
     C86    16.66101   22.42592   27.52462
     C87    17.27642   23.58550   28.36885
     H88    16.16335   21.69365   28.16040
     H89    17.48833   21.85279   27.10607
     H90    17.21124   24.50788   27.79173
     H91    18.32490   23.30495   28.46925
     H92    16.68532   23.72267   29.27433
     C93    12.16773   23.82617   25.79475
     C94    11.10827   22.78989   26.07436
     H95    11.83094   24.47507   24.98630
     H96    12.14548   24.55978   26.60062
     H97    11.02029   22.00444   25.32375
     H98    10.14964   23.29121   26.20779
     H99    11.29929   22.18054   26.95771
    H100    12.09168   23.34382   23.33823
    H101    28.60644   33.34263   21.80041
    H102    26.14004   33.77739   21.19231
    H103    13.99520   25.87866   24.31708
    H104    14.74879   28.03810   23.13587
    C105    30.37225   29.04561   27.46951
    N106    29.02200   29.11782   28.06245
    C107    28.92665   29.65373   29.30305
    C108    27.99788   28.54128   27.44969
    C109    27.69202   29.83050   29.93878
    C110    26.60134   29.12451   29.37342
    H111    29.83292   30.15296   29.61264
    C112    26.77804   28.48587   28.12521
    N113    25.07037   30.19225   30.94347
    H114    28.08598   28.09240   26.47135
    C115    25.26938   29.24565   30.04755
    H116    27.57332   30.40476   30.84571
    H117    26.07482   27.86272   27.59271
    H118    23.19215   29.49494   31.02620
    N119    23.84833   30.15809   31.41318
    H120    24.60698   28.40899   29.82546
    H121    14.40415   25.50220   26.94225
    C122    23.33384   30.95635   32.37493
    H123    15.43592   27.38708   28.12684
    O124    24.12065   31.66525   32.99360
    C125    14.43026   25.46406   28.02126
    H126    17.45543   29.56408   31.42347
    C127    15.05563   26.54597   28.68748
    C128    21.82944   30.93113   32.68953
    H129    21.35242   29.06128   31.66248
    C130    20.98994   29.85440   32.29963
    N131    17.69685   28.63311   31.73186
    N132    17.07154   27.56823   31.30209
    N133    14.05922   24.34375   28.73262
    C134    21.29115   31.91348   33.57940
    C135    15.23321   26.47454   30.06705
    H136    21.96136   32.66586   33.96819
    C137    19.62397   29.76569   32.75035
    C138    15.86506   27.67223   30.72202
    C139    18.82246   28.51613   32.46402
    C140    19.96139   31.91472   33.98125
    C141    14.14372   24.29655   30.09420
    C142    19.11819   30.81383   33.59039
    C143    14.72644   25.42519   30.79384
    H144    15.26315   28.57503   30.61830
    H145    19.70375   32.68672   34.69121
    O146    19.36903   27.42107   32.69792
    H147    13.76413   23.48979   30.70367
    H148    18.20621   30.66207   34.14864
    H149    14.89557   25.24288   31.84482
    C150    13.84050   23.06220   28.05916
    C151    31.34092   26.68037   23.00236
    N152    30.39840   25.59869   22.74760
    C153    30.76601   24.43786   22.11972
    C154    29.10844   25.70336   23.14646
    C155    29.86475   23.51237   21.63102
    C156    28.52516   23.59669   21.99539
    H157    31.79763   24.23796   21.87033
    C158    28.16161   24.68968   22.79473
    N159    28.05963   21.42359   20.92991
    H160    28.79789   26.47259   23.83801
    C161    27.57891   22.54488   21.52258
    H162    30.25014   22.64933   21.10847
    H163    27.13622   24.65355   23.13190
    H164    26.25642   20.62517   21.25293
    N165    27.12595   20.49171   20.75674
    H166    26.56706   22.73212   21.88204
    H167    20.11562   23.06936   24.15709
    C168    27.32071   19.45299   19.90677
    H169    21.54104   21.23557   23.25433
    O170    28.43734   19.34975   19.36953
    C171    19.77352   22.04609   24.10918
    H172    22.68129   17.48085   21.77676
    C173    20.54665   21.00355   23.60613
    C174    26.20709   18.44740   19.64856
    H175    24.63227   19.78099   20.19127
    C176    24.82963   18.80051   19.78370
    N177    22.07334   17.93314   21.10898
    N178    21.16217   18.72141   21.60518
    N179    18.49366   21.85971   24.41002
    C180    26.53825   17.12979   19.20591
    C181    20.03375   19.73056   23.47791
    H182    27.57752   16.83679   19.22738
    C183    23.81924   17.80834   19.52502
    C184    20.78797   18.62070   22.83876
    C185    22.39283   18.15901   19.84877
    C186    25.53785   16.15211   18.93605
    C187    17.94189   20.58123   24.39510
    C188    24.18870   16.46866   19.14784
    C189    18.69393   19.53081   23.87645
    H190    21.27333   17.98792   23.58181
    H191    25.75969   15.11822   18.71636
    O192    21.68781   18.79681   19.08953
    H193    16.93579   20.40769   24.74732
    H194    23.42281   15.72843   18.96931
    H195    18.26249   18.54110   23.84976
    C196    17.79762   23.05703   24.92665
    H197    14.10730   22.15934   28.60848
    H198    31.02382   29.84990   27.81110
    H199    18.17637   23.46372   25.86434
    H200    31.68308   27.06063   22.03984
    H201    32.26391   26.29863   23.43878
    H202    30.89999   28.24043   27.98066
    H203    12.77547   22.83613   28.11116
    H204    18.07735   23.81275   24.19267
      S1    26.90474   17.28345   27.68698
      O2    26.87441   16.62523   26.40900
      O3    28.23144   17.79087   27.95564
      O4    26.30600   16.53435   28.72539
      O5    26.11694   18.48337   27.51313
      S1    20.39483   32.61479   27.18126
      O2    19.30724   32.85851   26.22740
      O3    21.69259   32.75696   26.55340
      O4    20.25141   31.29540   27.77110
      O5    20.24125   33.63146   28.19569
      S1    23.13713   27.69170   23.36545
      O2    21.96331   28.47974   22.95519
      O3    22.73683   26.43880   23.97589
      O4    24.05588   28.39040   24.25620
      O5    23.86557   27.35348   22.18753

