182
frame 691 | Written by MDAnalysis XYZWriter (release 1.1.1)
      C1    25.56067   26.48931   18.93754
      O2    25.29212   26.71661   20.17126
      N3    24.57497   26.28136   18.06985
      N4    26.81759   26.48024   18.44222
      N5    23.33594   26.01807   18.55084
      C6    22.33554   25.94865   17.64591
      C7    20.91673   25.91691   18.03789
      H8    22.46374   25.89259   16.56493
      H9    24.81854   26.00676   17.12891
     N10    27.86799   26.70114   19.23666
     H11    27.03477   26.26716   17.47913
     C12    29.08717   26.77780   18.66102
     C13    30.25048   26.57101   19.53521
     H14    29.30390   26.66465   17.59880
     C15    20.44459   25.33909   19.20755
     C16    19.96667   26.52281   17.18877
     C17    19.07497   25.23964   19.40044
     N18    18.13939   25.72905   18.56326
     C19    18.59922   26.45912   17.52874
     H20    21.20159   24.93831   19.86538
     H21    18.77769   24.56691   20.19131
     H22    20.27135   27.07272   16.31060
     H23    17.89239   27.06529   16.98161
     C24    16.68675   25.57578   18.85675
     C25    16.32807   24.55444   19.93161
     H26    16.26642   25.28534   17.89390
     H27    16.30542   26.59668   18.87803
     C28    16.12556   23.16436   19.66103
     C29    16.13820   22.19828   20.75254
     C30    15.88057   22.69559   22.06125
     C31    15.87146   24.08995   22.35758
     C32    16.13387   25.02988   21.28578
     C33    31.42496   27.32411   19.34955
     C34    30.21055   25.60984   20.48480
     C35    31.30876   25.45856   21.38357
     C36    32.51463   27.04146   20.21814
     N37    32.42653   26.19769   21.24125
     H38    31.47842   27.97384   18.48852
     H39    33.44289   27.57779   20.08749
     H40    29.33918   24.98779   20.62685
     H41    31.14116   24.76331   22.19285
     C42    33.65602   25.94460   22.05824
     C43    33.36769   25.24884   23.39041
     H44    34.27224   26.82280   22.25095
     H45    34.28221   25.32755   21.41385
     C46    33.48705   23.78716   23.50097
     C47    32.95431   23.14666   24.65681
     C48    32.48109   23.87073   25.79314
     C49    32.46035   25.25900   25.71261
     C50    32.86581   25.96585   24.52385
     H51    14.84134   24.02593   24.29306
     C52    15.67858   24.51984   23.79991
     N53    16.86217   24.61274   24.67774
     O54    23.35925   26.99151   27.00220
     C55    16.78905   25.42294   25.72458
     C56    17.88263   23.79344   24.45403
     H57    15.89126   26.01040   25.84815
     C58    17.90718   25.49352   26.64446
     C59    18.93104   23.69966   25.38754
     C60    19.00389   24.60818   26.45852
     C61    23.31828   26.02225   27.73696
     N62    21.18203   25.35365   27.18731
     C63    20.11685   24.60828   27.46591
     H64    15.20196   25.50010   23.79616
     H65    18.02990   26.20645   27.44638
     H66    27.52394   24.57207   26.38137
     N67    22.25957   25.22116   27.85582
     H68    19.72349   22.98685   25.21342
     C69    28.28175   25.12832   26.91309
     N70    24.40475   25.60410   28.36381
     N71    25.53043   26.21502   28.14763
     H72    29.92268   24.96195   25.49119
     C73    29.59179   25.37460   26.43280
     C74    26.57419   25.45965   28.62774
     H75    32.51917   25.57464   27.73824
     C76    27.96925   25.70377   28.15348
     H77    24.37933   24.77126   28.93463
     H78    19.98296   24.01932   28.37327
     H79    22.24768   24.40007   28.44383
     N80    30.54226   26.06689   27.18032
     C81    31.97989   25.99304   26.88841
     H82    26.53626   24.57851   29.26824
     C83    28.85920   26.51445   28.85935
     C84    30.14648   26.71729   28.32395
     H85    28.59229   27.05135   29.75762
     H86    30.85504   27.32109   28.87147
     H87    32.44417   26.97852   26.92532
     H88    18.05233   23.20037   23.56754
     H89    15.51507   20.26058   21.02455
     C90    16.35030   20.72186   20.49756
     N91    17.71298   20.22746   20.92661
     O92    24.82644   20.44204   23.26076
     C93    17.83813   18.89355   21.18266
     C94    18.83903   20.97952   20.93104
     H95    16.95666   18.28062   21.06547
     C96    19.08679   18.26685   21.45549
     C97    20.12407   20.45585   21.22023
     C98    20.30603   19.05921   21.39177
     C99    25.00548   19.35155   22.68767
    N100    22.72358   19.19663   22.00736
    C101    21.64612   18.43271   21.71969
    H102    15.99707   20.47379   19.49667
    H103    19.14284   17.22167   21.72166
    H104    29.04507   21.21561   22.24596
    N105    23.94261   18.71533   22.13126
    H106    21.01374   21.06490   21.28295
    C107    29.80746   20.81621   22.89838
    N108    26.15477   18.72087   22.59323
    N109    27.22137   19.21718   23.14587
    H110    30.85642   22.61624   23.24536
    C111    30.88456   21.55336   23.43484
    C112    28.41805   18.67413   22.74408
    C113    29.67634   19.43104   23.19281
    H114    26.22487   17.93234   21.96602
    H115    21.61007   17.37525   21.45782
    H116    24.10051   17.90680   21.54692
    N117    31.88417   20.89648   24.04871
    C118    33.05153   21.62306   24.59204
    H119    28.67533   17.90657   22.01417
    C120    30.74569   18.79550   23.85374
    C121    31.81264   19.56162   24.31868
    H122    30.71375   17.74295   24.09354
    H123    32.63269   18.96231   24.68577
    H124    18.84543   22.03531   20.70371
    C125    33.82429   22.93822   22.22590
    C126    35.28899   22.76805   21.90147
    H127    33.34346   23.42830   21.37930
    H128    33.31115   21.98120   22.32027
    H129    35.61035   22.11325   21.09149
    H130    35.84481   22.47721   22.79287
    H131    35.69196   23.69131   21.48517
    C132    32.87425   27.47152   24.49720
    C133    31.50391   28.07068   24.23087
    H134    33.19551   27.87035   25.45940
    H135    33.65123   27.92079   23.87869
    H136    30.79405   27.80087   25.01279
    H137    31.00074   27.73864   23.32275
    H138    31.49573   29.15883   24.29384
    C139    32.10770   23.10641   27.02019
    C140    30.77223   22.31604   26.85869
    H141    32.93932   22.50701   27.39062
    H142    31.87403   23.73130   27.88217
    H143    30.59250   21.91585   27.85651
    H144    30.83844   21.53819   26.09798
    H145    29.82355   22.78907   26.60503
    C146    16.07357   22.65539   18.20011
    C147    17.41455   22.07234   17.65125
    H148    15.71525   23.45524   17.55206
    H149    15.28434   21.92272   18.03156
    H150    18.15731   22.74211   18.08465
    H151    17.40827   22.16242   16.56500
    H152    17.61815   21.06094   18.00296
    C153    16.09120   26.50589   21.51230
    C154    14.68735   27.01664   21.30118
    H155    16.77530   27.02733   20.84282
    H156    16.37415   26.78178   22.52814
    H157    14.28193   26.63250   20.36514
    H158    14.79054   28.10103   21.26179
    H159    14.01961   26.78713   22.13157
    C160    15.66739   21.67942   23.22519
    C161    14.21632   21.23910   23.37690
    H162    16.27276   20.78078   23.10649
    H163    15.89695   22.15598   24.17824
    H164    13.88446   20.97914   22.37171
    H165    13.49949   22.01682   23.64036
    H166    14.16818   20.37927   24.04508
    H167    33.27265   21.26185   25.59640
    H168    33.95359   21.32487   24.05774
      H1    26.39482   21.44914   29.13011
      O2    23.43215   22.06015   30.51344
      C3    25.56120   21.29900   29.81614
      C4    24.27680   22.09323   29.58960
      H5    26.09858   21.54205   30.73279
      O6    24.03680   22.61405   28.50916
      H7    25.26771   20.26435   29.99351
      H1    30.25525   21.25900   15.93595
      O2    31.31090   19.98132   18.02709
      C3    31.34017   21.23741   16.03885
      C4    31.72490   21.02214   17.46122
      H5    31.83069   22.12328   15.63545
      O6    32.27557   21.89539   18.07597
      H7    31.80571   20.43232   15.47035

