182
frame 478 | Written by MDAnalysis XYZWriter (release 1.1.1)
      C1    22.78061   26.43773   20.41973
      O2    22.63165   26.85491   21.60092
      N3    21.72591   26.28458   19.66718
      N4    23.98213   26.48884   19.78218
      N5    20.50425   26.40920   20.13001
      C6    19.47089   26.01598   19.35093
      C7    18.06958   25.85812   19.96069
      H8    19.56718   25.38592   18.46670
      H9    21.82844   26.31663   18.66290
     N10    25.08712   26.75984   20.45942
     H11    24.06327   26.20686   18.81574
     C12    26.19646   27.08248   19.80742
     C13    27.46164   27.08190   20.58300
     H14    26.36003   27.22756   18.73957
     C15    17.92894   25.48719   21.32716
     C16    16.94886   25.88745   19.12098
     C17    16.64742   25.08802   21.71576
     N18    15.58299   25.01177   20.86735
     C19    15.67892   25.46096   19.62008
     H20    18.75335   25.40381   22.01984
     H21    16.55816   24.75615   22.73963
     H22    17.17767   26.10049   18.08721
     H23    14.88237   25.41505   18.89220
     C24    14.22256   24.58290   21.36039
     C25    14.18533   23.64477   22.59008
     H26    13.52801   24.19505   20.61522
     H27    13.69730   25.51232   21.58031
     C28    14.39814   22.25647   22.34754
     C29    14.20922   21.32367   23.40885
     C30    13.95095   21.79488   24.74842
     C31    13.88212   23.20581   24.96879
     C32    13.90058   24.12344   23.89940
     C33    28.54924   27.88661   20.14408
     C34    27.63040   26.41591   21.84805
     C35    28.79950   26.57285   22.52685
     C36    29.75967   27.95327   20.88987
     N37    29.82825   27.23658   21.97770
     H38    28.39115   28.49002   19.26243
     H39    30.54076   28.56256   20.45970
     H40    26.84130   25.73287   22.12586
     H41    28.78822   26.04928   23.47139
     C42    31.13070   27.18365   22.72948
     C43    31.13563   26.49415   24.08521
     H44    31.54595   28.19122   22.75111
     H45    31.86187   26.67388   22.10208
     C46    31.27415   25.06528   24.13171
     C47    31.17876   24.39810   25.40199
     C48    30.84162   25.09589   26.60418
     C49    30.56111   26.45297   26.52087
     C50    30.82455   27.17400   25.30157
     H51    13.12033   23.07225   26.96137
     C52    13.61496   23.80754   26.32672
     N53    14.85537   24.26627   27.06218
     O54    21.74079   27.41823   27.81003
     C55    14.74749   25.22133   27.98336
     C56    16.09295   23.75624   26.82356
     H57    13.77511   25.67341   28.11179
     C58    15.87708   25.78429   28.57484
     C59    17.24723   24.16947   27.46291
     C60    17.13760   25.24072   28.35790
     C61    21.66510   26.81339   28.92608
     N62    19.54752   25.95432   28.45559
     C63    18.34269   25.73173   29.09484
     H64    12.79631   24.52719   26.32263
     H65    15.83477   26.53004   29.35489
     H66    25.70644   26.25037   27.49920
     N67    20.52239   26.20878   29.30860
     H68    18.20456   23.71544   27.25366
     C69    26.50328   26.64694   28.11090
     N70    22.67908   26.70644   29.74459
     N71    23.82902   26.74427   29.18594
     H72    27.96017   26.45111   26.48118
     C73    27.79224   26.69424   27.51998
     C74    24.85139   27.24107   29.88303
     H75    30.92900   26.96669   28.57907
     C76    26.20939   27.26165   29.35122
     H77    22.59130   26.27931   30.65562
     H78    18.07035   25.80734   30.14756
     H79    20.44109   25.85130   30.24972
     N80    28.81927   27.15477   28.27245
     C81    30.23030   27.20441   27.77694
     H82    24.74911   27.86349   30.77197
     C83    27.28199   27.79519   30.08544
     C84    28.59092   27.63469   29.52198
     H85    27.15661   28.25919   31.05259
     H86    29.41362   27.87359   30.17963
     H87    30.58970   28.23176   27.83599
     H88    16.16677   22.91538   26.14985
     H89    14.16376   19.27108   23.89751
     C90    14.62539   19.91928   23.15264
     N91    16.06919   19.62540   23.15219
     O92    23.23500   20.96617   24.68027
     C93    16.48342   18.38770   22.68091
     C94    16.94765   20.43453   23.76924
     H95    15.75713   17.73861   22.21445
     C96    17.83259   17.94726   22.78607
     C97    18.33624   20.04962   23.92868
     C98    18.77577   18.79687   23.41387
     C99    23.41685   19.82028   24.17750
    N100    21.19768   19.41660   23.70201
    C101    20.26485   18.48642   23.39977
    H102    14.10635   19.55707   22.26523
    H103    18.18327   16.97083   22.48607
    H104    26.99844   22.28553   24.25405
    N105    22.39823   18.96754   23.84195
    H106    19.04794   20.63972   24.48694
    C107    27.97210   21.81833   24.26405
    N108    24.65932   19.26433   24.07330
    N109    25.69465   20.00390   24.36612
    H110    28.80327   23.62325   24.81937
    C111    29.05486   22.60262   24.57157
    C112    26.88942   19.68776   23.77814
    C113    28.12727   20.46438   24.04827
    H114    24.76190   18.28573   23.84546
    H115    20.50933   17.42790   23.31110
    H116    22.60054   18.08625   23.39194
    N117    30.24405   21.99055   24.81125
    C118    31.37867   22.84018   25.38387
    H119    26.94137   19.01865   22.91924
    C120    29.41573   19.86355   24.20987
    C121    30.43326   20.64888   24.71212
    H122    29.41957   18.78420   24.17274
    H123    31.42792   20.26618   24.88702
    H124    16.62686   21.37514   24.19202
    C125    31.61980   24.30268   22.84744
    C126    33.09924   24.24364   22.59551
    H127    31.22359   24.77201   21.94697
    H128    31.37148   23.24136   22.85398
    H129    33.46330   25.26549   22.48881
    H130    33.41439   23.67804   21.71866
    H131    33.59316   23.74074   23.42692
    C132    30.76928   28.65330   25.34493
    C133    29.33470   29.08760   24.99407
    H134    31.13336   29.18596   26.22346
    H135    31.42572   29.05335   24.57218
    H136    29.34776   30.17686   25.03232
    H137    28.64986   28.72051   25.75848
    H138    28.99227   28.84494   23.98810
    C139    30.65187   24.39462   27.92311
    C140    29.24579   23.68890   28.04608
    H141    31.41270   23.62193   28.03353
    H142    31.01762   24.98008   28.76665
    H143    29.00893   22.97529   27.25692
    H144    28.41110   24.38951   28.06951
    H145    29.26289   23.00649   28.89586
    C146    14.81416   21.75367   20.98805
    C147    16.30407   21.85227   20.54167
    H148    14.14010   22.29466   20.32392
    H149    14.43419   20.74386   20.83310
    H150    16.45789   21.04418   19.82652
    H151    17.15149   21.81507   21.22622
    H152    16.43354   22.72338   19.89941
    C153    13.64230   25.57804   24.16083
    C154    12.20414   25.88855   24.05650
    H155    14.20836   26.12248   23.40501
    H156    14.12141   25.81474   25.11085
    H157    11.58899   25.46570   24.85078
    H158    11.72826   25.72081   23.09032
    H159    12.09576   26.93789   24.33080
    C160    14.11764   20.94427   25.97542
    C161    12.76569   20.31249   26.31771
    H162    14.88258   20.16792   25.95963
    H163    14.40999   21.52804   26.84825
    H164    12.10757   21.08408   26.71726
    H165    12.92699   19.77673   27.25315
    H166    12.26350   19.65334   25.60960
    H167    31.62391   22.48619   26.38520
    H168    32.19089   22.53370   24.72473
      H1    24.95073   24.06067   30.35275
      O2    22.85069   22.76706   31.94191
      C3    24.42297   23.12657   30.16039
      C4    22.97104   23.20097   30.77733
      H5    25.08307   22.28987   30.38910
      O6    22.02799   23.48764   30.02253
      H7    24.28087   23.01250   29.08573
      H1    29.38504   20.16951   16.92206
      O2    27.84700   22.05748   18.61127
      C3    29.22536   20.13904   17.99987
      C4    29.02271   21.52673   18.53583
      H5    30.09934   19.65325   18.43377
      O6    29.95751   22.26144   18.92962
      H7    28.36736   19.48593   18.15922

