210
frame 891 | Written by MDAnalysis XYZWriter (release 1.1.1)
      C1    22.64992   32.13898   18.31710
      C2    21.45916   31.55728   18.69849
      C3    23.77014   31.25350   18.14980
      C4    23.71348   29.84823   18.34563
      C5    22.45467   29.31667   18.69222
      C6    21.33682   30.14374   18.91903
      H7    20.54798   32.13606   18.73236
      H8    22.75539   33.20789   18.20433
      H9    24.73281   31.67968   17.90890
     H10    22.22608   28.27024   18.55388
     C11    24.90293   28.98936   18.21705
     O12    26.02269   29.52201   18.20364
     N13    24.74683   27.66444   18.12370
     N14    25.84792   26.91846   17.91743
     C15    25.72397   25.61929   17.83665
     C16    20.00672   29.45351   19.23535
     O17    18.96662   30.08870   19.04312
     N18    20.01275   28.12590   19.66182
     N19    18.96399   27.31932   19.81785
     C20    19.20641   26.01992   20.08626
     C21    18.09796   25.02350   20.28542
     H22    20.16082   25.49930   20.16479
     C23    18.38654   23.91906   21.06274
     C24    17.52478   22.84595   21.21124
     N25    16.24797   22.93853   20.70937
     C26    15.87536   24.07985   20.00946
     C27    16.79750   25.09162   19.70957
     H28    14.83074   24.15455   19.74568
     H29    16.39104   25.93161   19.16587
     C30    15.16560   21.99173   20.98840
     C31    26.85172   24.79278   17.36470
     H32    24.81953   25.03031   17.98895
     C33    27.33177   23.61188   18.05121
     C34    27.50828   25.26212   16.24160
     C35    28.63455   24.54541   15.77321
     N36    29.12592   23.44692   16.43504
     C37    28.49185   22.99435   17.56069
     H38    26.81128   23.29295   18.94215
     H39    28.76820   22.02315   17.94383
     C40    30.44896   22.99135   15.93342
     H41    23.86168   27.19395   18.24723
     H42    20.90533   27.78750   19.99181
     C43    31.19933   22.10445   16.92035
     H44    31.02579   23.76049   15.41980
     H45    30.29534   22.33300   15.07839
     C46    31.12346   20.66170   16.82254
     C47    31.92343   19.88191   17.72126
     C48    32.52296   20.52815   18.85640
     C49    32.47589   21.93449   19.03885
     C50    32.00857   22.71043   17.95831
     C51    15.61509   20.62810   21.47957
     H52    14.53533   21.99766   20.09911
     C53    15.92636   19.56844   20.58291
     C54    16.40564   18.31316   21.08390
     C55    16.59532   18.12930   22.43689
     C56    16.36397   19.16673   23.34951
     C57    15.84475   20.43818   22.89386
     C58    32.30100   24.21094   17.87490
     C59    31.29548   25.04043   18.66594
     H60    33.31064   24.34068   18.26464
     H61    32.37279   24.55589   16.84342
     H62    30.27102   24.76038   18.42066
     H63    31.34137   26.11406   18.48341
     H64    31.46303   25.00613   19.74244
     C65    30.19863   19.98733   15.89821
     C66    30.94320   19.68332   14.60831
     H67    29.37377   20.66981   15.69345
     H68    29.88578   19.01691   16.28359
     H69    31.83978   19.07795   14.74169
     H70    31.41370   20.55481   14.15308
     H71    30.28952   19.27381   13.83818
     C72    33.27523   19.72325   19.89660
     C73    34.80384   19.55470   19.56158
     H74    32.84142   18.72330   19.89891
     H75    33.13533   20.04099   20.92983
     H76    35.13149   18.64022   20.05602
     H77    35.27360   20.44021   19.98973
     H78    34.98088   19.59931   18.48698
     C79    15.73787   19.79211   19.07244
     C80    16.98582   20.38770   18.37056
     H81    14.84674   20.39963   18.91454
     H82    15.50314   18.85162   18.57397
     H83    16.99955   21.39837   18.77858
     H84    16.98191   20.38918   17.28057
     H85    17.89240   19.84892   18.64610
     C86    16.95863   16.70655   22.88178
     C87    18.38080   16.60858   23.53006
     H88    16.14013   16.38713   23.52687
     H89    16.84196   15.94544   22.11029
     H90    19.22866   16.90372   22.91191
     H91    18.53128   15.58365   23.86916
     H92    18.45595   17.09372   24.50325
     C93    15.65263   21.62076   23.83293
     C94    14.21871   21.72790   24.39856
     H95    15.90204   22.57396   23.36676
     H96    16.33052   21.56142   24.68442
     H97    13.95200   22.76856   24.58292
     H98    13.97953   21.08811   25.24801
     H99    13.47977   21.35922   23.68712
    H100    14.58995   22.39037   21.82375
    H101    29.27164   24.93004   14.99054
    H102    27.24116   26.24915   15.89400
    H103    17.82212   22.02515   21.84707
    H104    19.35253   23.79340   21.52908
    C105    32.90379   22.54843   20.35483
    N106    31.80378   22.41970   21.32449
    C107    32.14823   22.19237   22.61746
    C108    30.47332   22.62916   21.02254
    C109    31.19985   22.18348   23.66233
    C110    29.81570   22.41269   23.31913
    H111    33.14142   21.92781   22.94907
    C112    29.44779   22.61632   21.98613
    N113    28.98983   22.55964   25.59073
    H114    30.19446   22.85490   20.00387
    C115    28.73550   22.50955   24.28632
    H116    31.55135   21.93889   24.65381
    H117    28.41068   22.76593   21.72459
    H118    27.01724   22.79959   25.88390
    N119    27.91524   22.79325   26.34614
    H120    27.78047   22.76829   23.82907
    H121    18.72258   20.15837   23.91489
    C122    28.05817   22.86870   27.67826
    H123    20.63073   20.77043   25.22668
    O124    29.07249   22.74205   28.33505
    C125    18.67142   19.96467   24.97614
    H126    23.27787   21.41164   28.21055
    C127    19.77927   20.35815   25.74768
    C128    26.83467   23.35592   28.37882
    H129    25.25791   22.45800   27.10131
    C130    25.47647   23.08946   27.94977
    N131    22.57488   22.13304   28.13650
    N132    21.38938   21.84831   27.75789
    N133    17.60539   19.34812   25.58678
    C134    27.03614   24.22883   29.43046
    C135    19.80302   20.15584   27.10910
    H136    28.03134   24.29471   29.84477
    C137    24.39100   23.59463   28.69030
    C138    20.97842   20.57634   27.85055
    C139    22.98976   23.36257   28.26111
    C140    25.92934   24.89927   29.95385
    C141    17.65545   19.08229   26.87696
    C142    24.62046   24.47518   29.75467
    C143    18.70729   19.53711   27.73875
    H144    21.53700   19.72693   28.24375
    H145    26.12186   25.53586   30.80479
    O146    22.17681   24.29743   28.17357
    H147    16.79624   18.59737   27.31630
    H148    23.85359   24.99471   30.31001
    H149    18.70572   19.29257   28.79070
    C150    16.40212   18.84284   24.82296
    C151    31.99652   18.40724   17.60228
    N152    31.02676   17.58191   18.33562
    C153    31.10856   16.24587   18.03731
    C154    30.18445   18.10009   19.31924
    C155    30.34620   15.33687   18.85930
    C156    29.61069   15.86477   19.98147
    H157    31.71360   15.99018   17.18001
    C158    29.43943   17.25808   20.14709
    N159    28.66988   13.68802   20.68546
    H160    29.99229   19.15246   19.46752
    C161    29.11858   14.90078   20.96296
    H162    30.39467   14.27573   18.66429
    H163    28.87088   17.77291   20.90742
    H164    29.15509   13.12317   22.50773
    N165    28.61938   12.84807   21.69690
    H166    29.43056   15.26466   21.94192
    H167    19.07364   18.63036   20.62583
    C168    27.89821   11.69935   21.70065
    H169    21.31545   17.81850   20.67010
    O170    27.86594   10.98312   22.67857
    C171    19.17901   17.56747   20.46596
    H172    24.35687   14.03573   19.06527
    C173    20.51839   17.14194   20.39924
    C174    26.91319   11.32602   20.61480
    H175    25.56790   13.07425   20.75235
    C176    25.70914   12.08865   20.33395
    N177    23.49657   13.51080   19.13177
    N178    22.35861   14.17686   19.31902
    N179    18.15285   16.75834   20.09697
    C180    27.11143   10.04218   19.98905
    C181    20.76927   15.91065   19.74039
    H182    27.99290    9.46297   20.22125
    C183    24.68138   11.48359   19.54902
    C184    22.17013   15.51444   19.45372
    C185    23.43982   12.16624   19.17440
    C186    26.12204    9.46125   19.20064
    C187    18.38000   15.57462   19.44686
    C188    24.96178   10.22951   18.94750
    C189    19.71242   15.09346   19.25952
    H190    22.90202   16.30961   19.59563
    H191    26.24669    8.45958   18.81657
    O192    22.42237   11.51483   18.91584
    H193    17.59782   14.89532   19.14167
    H194    24.20628    9.88048   18.25916
    H195    19.93148   14.12618   18.83198
    C196    16.78053   17.19600   20.11276
    H197    16.21921   17.78638   25.01926
    H198    33.17882   23.59979   20.27044
    H199    16.72426   17.54157   19.08052
    H200    31.88638   18.18539   16.54079
    H201    32.99004   18.08946   17.91855
    H202    33.82225   22.04844   20.66233
    H203    15.47245   19.20144   25.26479
    H204    16.02787   16.40980   20.17187
      P1    23.78723   21.99717   22.01617
      O2    22.30861   22.35279   21.80359
      O3    24.58055   22.46032   20.81293
      H4    25.25426   23.05388   21.01883
      O5    23.80199   20.42427   22.12060
      O6    24.35456   22.62564   23.27929

