210
frame 885 | Written by MDAnalysis XYZWriter (release 1.1.1)
      C1    22.39165   32.08389   19.84149
      C2    21.16916   31.44917   19.84388
      C3    23.61755   31.49211   19.45405
      C4    23.57121   30.13122   19.08329
      C5    22.35275   29.40960   19.09479
      C6    21.14258   30.03600   19.58878
      H7    20.26223   31.96165   20.12894
      H8    22.32615   33.15000   20.00122
      H9    24.57455   31.99021   19.50343
     H10    22.32053   28.35010   18.88783
     C11    24.83717   29.43119   18.64970
     O12    25.69351   30.18800   18.10753
     N13    24.90155   28.07165   18.73657
     N14    25.83621   27.42974   18.09906
     C15    26.07033   26.12379   18.35500
     C16    19.88652   29.28074   19.78680
     O17    18.79601   29.83001   19.71463
     N18    20.03467   27.97658   20.01437
     N19    19.08659   27.07800   19.94765
     C20    19.31539   25.87435   20.37709
     C21    18.23533   24.83199   20.28127
     H22    20.19818   25.43698   20.84343
     C23    18.53567   23.52128   20.78110
     C24    17.55405   22.54873   20.82355
     N25    16.27094   22.84994   20.51139
     C26    16.02324   24.06142   19.89425
     C27    16.95763   25.11721   19.80455
     H28    15.15801   24.14479   19.25328
     H29    16.76643   26.03648   19.27089
     C30    15.15894   21.80660   20.65375
     C31    27.17558   25.35719   17.68427
     H32    25.38290   25.49101   18.91636
     C33    27.50127   24.04622   18.11235
     C34    27.81978   25.86180   16.54058
     C35    28.74733   25.01026   15.88766
     N36    29.10194   23.78562   16.32243
     C37    28.38410   23.23057   17.34192
     H38    26.98319   23.56214   18.92701
     H39    28.59206   22.20969   17.62647
     C40    30.17454   23.12123   15.60453
     H41    24.23188   27.55969   19.29294
     H42    20.92079   27.60174   20.32158
     C43    30.91487   22.15034   16.50944
     H44    30.90441   23.84865   15.24920
     H45    29.71265   22.69293   14.71496
     C46    30.93731   20.74792   16.24461
     C47    31.67438   19.90380   17.09138
     C48    32.41961   20.43390   18.21422
     C49    32.40609   21.84300   18.51015
     C50    31.76194   22.70223   17.57591
     C51    15.76734   20.45479   21.07924
     H52    14.53954   21.66433   19.76820
     C53    16.30538   19.56804   20.11543
     C54    16.94148   18.31908   20.46758
     C55    16.84935   17.88100   21.81504
     C56    16.27213   18.75343   22.80780
     C57    15.82328   20.06368   22.44155
     C58    31.96470   24.19717   17.65883
     C59    31.13153   24.97991   18.66115
     H60    33.01593   24.26787   17.93814
     H61    31.88036   24.66719   16.67900
     H62    31.26241   26.05701   18.55710
     H63    31.51715   24.78293   19.66145
     H64    30.05768   24.79757   18.61969
     C65    30.05665   20.08779   15.23757
     C66    30.61168   20.10348   13.78418
     H67    29.14697   20.67640   15.11866
     H68    29.66962   19.10173   15.49446
     H69    31.44011   19.39530   13.76705
     H70    30.84609   21.05796   13.31288
     H71    29.87453   19.69516   13.09282
     C72    33.07428   19.49277   19.17144
     C73    34.60843   19.56783   18.98291
     H74    32.72579   18.49170   18.91743
     H75    32.83878   19.59144   20.23112
     H76    35.06542   18.79664   19.60303
     H77    35.07810   20.51417   19.25115
     H78    34.95302   19.22578   18.00703
     C79    16.10660   19.91799   18.61469
     C80    17.43747   20.47989   17.92512
     H81    15.25817   20.55244   18.35832
     H82    15.86853   19.01073   18.05943
     H83    18.27106   19.78808   18.04611
     H84    17.77967   21.43158   18.33168
     H85    17.29501   20.85361   16.91115
     C86    17.25450   16.49564   22.18650
     C87    18.54074   16.38098   22.87407
     H88    16.54373   16.00711   22.85303
     H89    17.14772   15.77174   21.37863
     H90    18.43135   16.49115   23.95296
     H91    19.33951   16.99620   22.45985
     H92    18.95126   15.37154   22.84934
     C93    15.60203   21.15115   23.51699
     C94    14.09478   21.07129   23.86647
     H95    15.91584   22.12145   23.13212
     H96    16.28059   21.01117   24.35845
     H97    13.91723   21.84758   24.61076
     H98    13.85766   20.11197   24.32645
     H99    13.48423   21.29720   22.99223
    H100    14.50920   22.19825   21.43641
    H101    29.32159   25.36792   15.04581
    H102    27.60735   26.85230   16.16618
    H103    17.83514   21.62807   21.31323
    H104    19.55876   23.31612   21.05968
    C105    32.87723   22.33728   19.89936
    N106    31.88365   22.35548   20.98845
    C107    32.19979   22.72934   22.28756
    C108    30.61607   22.09863   20.67383
    C109    31.22439   22.72335   23.28921
    C110    29.91209   22.34786   22.91608
    H111    33.20918   23.03877   22.51510
    C112    29.59497   22.05286   21.59482
    N113    28.87481   22.36372   25.14837
    H114    30.34222   21.97718   19.63622
    C115    28.72873   22.34442   23.85795
    H116    31.48280   22.93631   24.31598
    H117    28.57056   21.93481   21.27381
    H118    26.90111   22.56011   25.47547
    N119    27.78539   22.33641   25.90920
    H120    27.77925   22.30750   23.32390
    H121    18.34236   19.84626   23.74918
    C122    27.88662   22.24127   27.25083
    H123    20.14491   20.43116   25.24736
    O124    28.99069   22.17306   27.84058
    C125    18.28391   19.38626   24.72457
    H126    22.82031   20.42700   28.71292
    C127    19.40979   19.68923   25.52219
    C128    26.63874   22.47292   28.12510
    H129    25.07078   21.81476   26.82580
    C130    25.32140   22.28905   27.76316
    N131    22.28803   21.13365   28.22564
    N132    21.24562   20.73844   27.50847
    N133    17.28593   18.58230   25.11254
    C134    26.91794   22.95278   29.41689
    C135    19.46605   19.20233   26.82379
    H136    27.93793   23.04866   29.75867
    C137    24.25971   22.52567   28.63461
    C138    20.58625   19.62453   27.74885
    C139    22.85477   22.37274   28.21410
    C140    25.90453   23.22827   30.29153
    C141    17.37731   18.04100   26.38456
    C142    24.56121   23.06215   29.94680
    C143    18.48417   18.26476   27.23547
    H144    20.73410   18.89434   28.54451
    H145    26.15899   23.68956   31.23433
    O146    22.18689   23.35914   27.93074
    H147    16.58882   17.37675   26.70619
    H148    23.78504   23.43319   30.59971
    H149    18.42235   17.83107   28.22264
    C150    16.15430   18.28024   24.18966
    C151    31.70329   18.41319   16.84394
    N152    30.81760   17.57769   17.74415
    C153    31.19724   16.30490   17.79392
    C154    30.01918   18.14088   18.73561
    C155    30.67234   15.48622   18.84878
    C156    29.72941   15.99688   19.72113
    H157    31.97403   15.99305   17.11147
    C158    29.45258   17.33348   19.72626
    N159    29.11671   13.81878   20.88324
    H160    29.76990   19.19132   18.70679
    C161    29.15879   15.16089   20.85444
    H162    30.98126   14.46023   18.98417
    H163    28.87017   17.75938   20.52988
    H164    29.09584   13.62464   22.86147
    N165    28.74497   13.22990   22.00056
    H166    28.93495   15.65618   21.79926
    H167    19.74642   18.40556   20.69231
    C168    28.50576   11.90954   22.01354
    H169    21.95657   17.72521   20.29133
    O170    29.08839   11.18757   22.79798
    C171    19.81650   17.59455   19.98255
    H172    24.93035   14.01938   19.31415
    C173    21.16360   17.14965   19.83708
    C174    27.64005   11.32506   20.90087
    H175    26.02736   12.83018   21.02676
    C176    26.43826   11.96935   20.52026
    N177    24.11813   13.42039   19.27400
    N178    22.99053   14.03453   19.28656
    N179    18.77177   16.87189   19.46889
    C180    28.00397   10.10047   20.26438
    C181    21.46009   15.91726   19.24476
    H182    28.95447    9.60907   20.41094
    C183    25.65012   11.51003   19.44481
    C184    22.85173   15.36507   19.19674
    C185    24.30575   12.12350   19.23822
    C186    27.23085    9.62416   19.16692
    C187    19.07851   15.71949   18.78860
    C188    26.04285   10.29422   18.80378
    C189    20.38763   15.14146   18.72286
    H190    23.51667   16.22864   19.18238
    H191    27.55077    8.71200   18.68523
    O192    23.35201   11.35814   19.08671
    H193    18.25859   15.26063   18.25608
    H194    25.37492    9.87314   18.06692
    H195    20.54216   14.21027   18.19805
    C196    17.39851   17.34046   19.42416
    H197    16.15348   17.19057   24.21665
    H198    33.22092   23.37126   19.92856
    H199    17.31359   17.77025   18.42607
    H200    31.42790   18.17425   15.81672
    H201    32.75354   18.12233   16.82213
    H202    33.77363   21.80289   20.21399
    H203    15.15631   18.52961   24.55010
    H204    16.69027   16.51792   19.32455
      P1    24.13494   21.77957   21.98013
      O2    22.75449   22.39091   21.58407
      O3    25.19028   22.29582   21.01877
      H4    25.46759   23.17409   21.12844
      O5    23.98972   20.21255   21.76164
      O6    24.40658   22.17721   23.49300

