214
frame 916 | Written by MDAnalysis XYZWriter (release 1.1.1)
      C1    18.70700   32.71619   10.25752
      C2    17.59029   32.26294   10.96885
      C3    19.95647   32.79038   10.88787
      C4    20.18635   32.39346   12.23280
      C5    19.00976   31.93535   12.95047
      C6    17.77261   31.78649   12.27423
      H7    16.60687   32.19056   10.52834
      H8    18.60746   33.07821    9.24489
      H9    20.79980   33.14946   10.31668
     H10    19.01537   31.56725   13.96579
     C11    21.56871   32.35173   12.79471
     O12    22.44530   32.79319   12.07566
     N13    21.78826   31.56219   13.84857
     N14    22.99657   31.24585   14.12715
     C15    23.16380   30.29592   15.02825
     C16    16.69958   31.06271   12.99982
     O17    16.58139   31.33290   14.17830
     N18    16.09872   30.05994   12.36241
     N19    15.37180   29.27018   12.99657
     C20    14.53316   28.44930   12.33095
     C21    13.84644   27.35044   13.11083
     H22    14.56515   28.25832   11.25829
     C23    14.27180   27.01635   14.42809
     C24    13.69609   25.90532   15.07819
     N25    12.75219   25.10650   14.44976
     C26    12.24348   25.49902   13.25223
     C27    12.75475   26.63225   12.60193
     H28    11.47054   24.86122   12.84952
     H29    12.31803   26.90806   11.65345
     C30    12.13233   23.98568   15.14843
     C31    24.55607   29.74316   15.17304
     H32    22.36648   29.66510   15.42126
     C33    24.74233   28.76961   16.17551
     C34    25.59456   29.91401   14.23071
     C35    26.82113   29.28192   14.39146
     N36    26.93880   28.36967   15.34309
     C37    25.94813   28.10028   16.22072
     H38    23.91363   28.49880   16.81294
     H39    26.09607   27.34094   16.97433
     C40    28.27199   27.83490   15.55208
     H41    21.01736   31.21584   14.40161
     H42    16.31465   29.78413   11.41509
     C43    28.47963   27.00582   16.75539
     H44    28.98346   28.64899   15.41365
     H45    28.41010   27.26019   14.63626
     C46    28.68868   25.58385   16.61134
     C47    29.10331   24.80989   17.70908
     C48    29.17160   25.35684   19.02267
     C49    28.87379   26.76851   19.18365
     C50    28.66484   27.57117   18.02099
     C51    12.86636   23.46007   16.32511
     H52    12.04458   23.16603   14.43528
     C53    14.11643   22.81363   16.04991
     C54    14.99396   22.65636   17.15663
     C55    14.50942   22.77112   18.49072
     C56    13.19067   23.27194   18.75856
     C57    12.43278   23.77299   17.64963
     C58    28.70417   29.10108   18.09686
     C59    27.43011   29.70303   18.67756
     H60    29.60644   29.46738   18.58660
     H61    28.83477   29.58473   17.12881
     H62    26.51281   29.62913   18.09343
     H63    27.58688   30.76813   18.84813
     H64    27.19658   29.38576   19.69387
     C65    28.44993   24.87787   15.25357
     C66    29.74824   24.84444   14.41086
     H67    27.66069   25.40820   14.72070
     H68    27.96697   23.92332   15.46259
     H69    30.24393   25.80297   14.25725
     H70    29.62898   24.43331   13.40843
     H71    30.50384   24.17438   14.82097
     C72    29.57996   24.59378   20.23331
     C73    31.09907   24.68645   20.51421
     H74    29.22319   23.56825   20.13787
     H75    28.98890   24.91392   21.09136
     H76    31.66390   24.31744   19.65812
     H77    31.35542   24.13102   21.41636
     H78    31.59185   25.63595   20.72331
     C79    14.46058   22.33028   14.65575
     C80    15.22785   23.31421   13.68586
     H81    13.59903   21.95493   14.10351
     H82    15.15426   21.49039   14.69434
     H83    15.69978   22.80748   12.84407
     H84    16.04799   23.82632   14.18907
     H85    14.63381   24.14624   13.30778
     C86    15.29484   22.18954   19.64405
     C87    16.51207   23.07841   20.01263
     H88    14.66755   21.92213   20.49441
     H89    15.76189   21.25207   19.34223
     H90    17.23518   23.26065   19.21766
     H91    17.04735   22.62135   20.84490
     H92    16.23945   24.11157   20.22795
     C93    11.22804   24.67422   17.89253
     C94    10.03387   23.75731   17.93486
     H95    11.21404   25.35592   17.04213
     H96    11.33629   25.20012   18.84111
     H97     9.84289   23.21263   17.01022
     H98     9.14876   24.29773   18.27046
     H99    10.23548   23.06660   18.75363
    H100    11.08148   24.18696   15.35653
    H101    27.59562   29.53894   13.68399
    H102    25.41722   30.61745   13.43064
    H103    14.04822   25.58007   16.04598
    H104    15.08159   27.48832   14.96463
    C105    28.83130   27.38640   20.57899
    N106    27.56701   27.46596   21.36731
    C107    27.52735   28.22413   22.44380
    C108    26.45675   26.87463   20.93955
    C109    26.34272   28.46700   23.15330
    C110    25.19238   27.74895   22.81250
    H111    28.45616   28.61555   22.83175
    C112    25.23852   26.97694   21.61944
    N113    23.68675   28.63141   24.53467
    H114    26.43476   26.24526   20.06216
    C115    24.00197   27.68353   23.67714
    H116    26.35855   28.91888   24.13409
    H117    24.37874   26.43308   21.25696
    H118    21.90982   27.87963   25.01430
    N119    22.58065   28.61238   25.19642
    H120    23.34816   26.84470   23.43842
    H121    13.98271   25.78753   19.18078
    C122    22.22461   29.52954   26.07071
    H123    15.27886   27.43689   20.60119
    O124    22.98389   30.44128   26.39619
    C125    14.02364   25.64206   20.25016
    H126    18.01032   27.99225   24.34229
    C127    14.73941   26.59172   21.00255
    C128    20.80342   29.61243   26.55305
    H129    20.07474   27.83336   25.70274
    C130    19.76439   28.74317   26.19501
    N131    17.26654   27.64418   24.93028
    N132    16.20775   27.10120   24.41291
    N133    13.42299   24.58184   20.91510
    C134    20.45674   30.64178   27.43977
    C135    14.99263   26.35666   22.37978
    H136    21.21932   31.31966   27.79380
    C137    18.47764   28.79294   26.68766
    C138    16.04694   27.24927   23.09257
    C139    17.40669   27.84663   26.26441
    C140    19.17515   30.81208   27.93936
    C141    13.50944   24.47354   22.24053
    C142    18.18065   29.88257   27.58322
    C143    14.24850   25.34360   23.03513
    H144    16.62580   27.84474   22.38656
    H145    18.98743   31.61148   28.64087
    O146    16.66732   27.37481   27.12192
    H147    13.03543   23.65394   22.76013
    H148    17.25472   30.02961   28.11934
    H149    14.40910   25.07118   24.06780
    C150    12.75144   23.50578   20.21500
    C151    29.28191   23.33244   17.52471
    N152    28.22299   22.40200   17.99821
    C153    28.59022   21.08332   18.01242
    C154    27.06141   22.73791   18.62976
    C155    27.90368   20.13361   18.73923
    C156    26.66899   20.38524   19.31768
    H157    29.47957   20.70790   17.52815
    C158    26.24221   21.70944   19.22330
    N159    25.90779   18.10612   19.73991
    H160    26.67167   23.73936   18.52201
    C161    25.90005   19.36143   20.08633
    H162    28.28706   19.13535   18.89059
    H163    25.32290   22.00817   19.70501
    H164    25.53812   17.41687   21.58208
    N165    25.47330   17.21027   20.59556
    H166    25.57293   19.76829   21.04318
    H167    18.97939   21.99969   16.75965
    C168    25.14269   15.94726   20.27713
    H169    20.09204   19.79322   17.07475
    O170    25.13627   15.03857   21.09465
    C171    18.35596   21.12250   16.85065
    H172    21.19934   16.11932   17.78707
    C173    19.02656   19.88088   16.92155
    C174    24.87922   15.63043   18.84099
    H175    23.04341   16.62211   18.80755
    C176    23.76175   16.11482   18.18062
    N177    21.15912   16.33672   16.80157
    N178    20.33003   17.31578   16.44626
    N179    17.02087   21.13697   16.95815
    C180    25.69295   14.65754   18.18273
    C181    18.31720   18.69012   16.97420
    H182    26.52921   14.14766   18.63782
    C183    23.52171   15.75435   16.85727
    C184    19.15348   17.42766   17.11364
    C185    22.32462   16.20908   16.09381
    C186    25.50887   14.27018   16.86775
    C187    16.24673   19.99490   17.06891
    C188    24.46104   14.92816   16.16803
    C189    16.92185   18.74658   17.13644
    H190    18.90782   16.79791   17.96873
    H191    26.19369   13.64035   16.31936
    O192    22.46778   16.60228   14.97533
    H193    15.17641   20.02717   17.20955
    H194    24.37578   14.58350   15.14806
    H195    16.46811   17.77697   17.27917
    C196    16.47474   22.50256   16.86741
    H197    12.76010   22.53588   20.71231
    H198    29.32554   28.35791   20.58223
    H199    17.08868   23.24863   17.37195
    H200    29.45665   23.03245   16.49148
    H201    30.19025   23.20508   18.11361
    H202    29.50932   26.80637   21.20506
    H203    11.70022   23.78005   20.30339
    H204    16.61560   22.74546   15.81419
      S1    20.50421   25.56865   12.78175
      O2    19.23300   25.26156   12.18029
      O3    20.17127   26.12909   14.07464
      O4    21.13108   26.61132   12.01412
      O5    21.35335   24.40105   12.87301
      S1    19.21528   27.54469   17.45667
      O2    18.57355   28.33963   16.39778
      O3    20.66457   27.49440   17.21921
      O4    18.71520   26.19282   17.31141
      O5    18.82981   27.96198   18.80319

