214
frame 935 | Written by MDAnalysis XYZWriter (release 1.1.1)
      C1    19.27129   33.80637   10.12950
      C2    18.28210   32.96888   10.66473
      C3    20.60142   33.82448   10.71641
      C4    20.83082   33.00103   11.84805
      C5    19.78450   32.27731   12.43087
      C6    18.49380   32.22153   11.82983
      H7    17.33631   32.94709   10.14376
      H8    19.06078   34.42159    9.26719
      H9    21.42074   34.33602   10.23324
     H10    20.00810   31.65617   13.28561
     C11    22.26289   32.76559   12.33829
     O12    23.25280   33.10520   11.73698
     N13    22.45875   32.13245   13.51950
     N14    23.62935   31.81774   14.05336
     C15    23.80294   30.77251   14.92593
     C16    17.42917   31.29366   12.44418
     O17    17.39502   31.16211   13.69618
     N18    16.79805   30.36717   11.66358
     N19    16.23675   29.36347   12.29621
     C20    15.53115   28.45988   11.55426
     C21    14.73520   27.32425   12.11019
     H22    15.34717   28.42205   10.48056
     C23    14.91913   27.04658   13.47305
     C24    14.22250   25.97015   14.04210
     N25    13.50359   25.12366   13.24056
     C26    13.15361   25.48448   11.98624
     C27    13.82060   26.57629   11.37645
     H28    12.60450   24.86295   11.29444
     H29    13.64431   26.76357   10.32752
     C30    13.24998   23.72192   13.61658
     C31    25.13963   30.14506   15.12216
     H32    22.99591   30.15230   15.31600
     C33    25.20284   28.90185   15.77704
     C34    26.27028   30.68742   14.52931
     C35    27.46619   29.97716   14.75802
     N36    27.49424   28.75822   15.37022
     C37    26.38879   28.18343   15.83749
     H38    24.34982   28.42995   16.24187
     H39    26.43790   27.18001   16.23388
     C40    28.78895   28.01936   15.37887
     H41    21.66615   31.81244   14.05754
     H42    16.91055   30.33266   10.66045
     C43    28.89644   27.25142   16.67149
     H44    29.60162   28.74142   15.29943
     H45    28.89325   27.44099   14.46088
     C46    29.03579   25.79597   16.63937
     C47    29.25149   25.06509   17.88620
     C48    29.33797   25.80004   19.11744
     C49    29.06985   27.22763   19.16688
     C50    28.97485   27.94961   17.93124
     C51    14.02364   23.28379   14.86689
     H52    13.18033   23.00004   12.80286
     C53    15.32695   22.79822   14.68707
     C54    16.11367   22.50961   15.75400
     C55    15.63297   22.44019   17.06915
     C56    14.27302   22.84937   17.32878
     C57    13.48584   23.30470   16.22979
     C58    28.93562   29.45921   17.95011
     C59    27.64275   30.12522   18.41643
     H60    29.69247   29.77870   18.66649
     H61    29.28874   29.94172   17.03874
     H62    27.25167   29.78704   19.37601
     H63    26.80767   30.11812   17.71594
     H64    27.82264   31.20009   18.43666
     C65    28.80632   25.01044   15.36121
     C66    30.01092   24.98851   14.39317
     H67    27.99555   25.51540   14.83608
     H68    28.46538   23.97923   15.45330
     H69    30.45642   25.97100   14.23713
     H70    29.86152   24.49479   13.43295
     H71    30.77323   24.38479   14.88563
     C72    29.69895   25.08454   20.37821
     C73    31.25001   24.98037   20.65516
     H74    29.26739   24.08637   20.30388
     H75    29.22233   25.61097   21.20513
     H76    31.69321   25.97030   20.54688
     H77    31.74240   24.36614   19.90125
     H78    31.49340   24.56821   21.63444
     C79    15.93562   22.61356   13.34181
     C80    16.54816   23.86452   12.68317
     H81    15.23046   22.28135   12.57991
     H82    16.67055   21.82008   13.47737
     H83    17.26754   24.36187   13.33375
     H84    15.84409   24.58871   12.27338
     H85    17.12988   23.52162   11.82753
     C86    16.51402   21.96755   18.26799
     C87    17.09974   23.03915   19.17915
     H88    15.92335   21.30558   18.90126
     H89    17.27098   21.27691   17.89635
     H90    17.85216   22.64849   19.86424
     H91    16.40626   23.65571   19.75101
     H92    17.63132   23.65729   18.45566
     C93    12.25739   24.12048   16.54959
     C94    11.05492   23.15946   16.61416
     H95    12.21305   24.88865   15.77755
     H96    12.28095   24.60238   17.52699
     H97    10.58319   22.83758   15.68575
     H98    10.24884   23.65324   17.15686
     H99    11.30657   22.26389   17.18225
    H100    12.19897   23.81542   13.88997
    H101    28.37079   30.47341   14.43888
    H102    26.34002   31.65632   14.05732
    H103    14.37240   25.75050   15.08885
    H104    15.54542   27.61206   14.14714
    C105    28.81534   27.86293   20.50474
    N106    27.40118   27.96592   20.98067
    C107    27.16414   28.36616   22.26331
    C108    26.30565   27.62716   20.18539
    C109    25.97510   28.12930   22.90007
    C110    24.86091   27.81239   22.11752
    H111    27.96479   28.81271   22.83424
    C112    24.96786   27.61359   20.69917
    N113    23.20080   28.22987   23.86404
    H114    26.39968   27.33212   19.15074
    C115    23.47247   27.75668   22.63880
    H116    25.82340   28.35105   23.94612
    H117    24.05358   27.36284   20.18185
    H118    21.45086   27.36572   24.14921
    N119    22.01539   28.16716   24.39233
    H120    22.69028   27.44250   21.94773
    H121    14.71310   25.48143   18.05620
    C122    21.69004   28.99078   25.46021
    H123    15.69656   27.03775   19.65184
    O124    22.47132   29.81612   26.01936
    C125    14.65530   25.22968   19.10485
    H126    17.10739   28.04737   23.80440
    C127    15.16416   26.15251   19.96698
    C128    20.32571   28.78023   26.12585
    H129    19.43612   27.48945   24.64321
    C130    19.28679   28.02534   25.56891
    N131    16.62877   27.30697   24.29719
    N132    15.76575   26.55546   23.59558
    N133    14.09856   24.04856   19.58279
    C134    20.16302   29.31170   27.42500
    C135    15.07259   25.89690   21.34722
    H136    20.90694   29.93748   27.89553
    C137    18.06188   27.89876   26.24903
    C138    15.69238   26.86936   22.26794
    C139    17.01303   27.04435   25.61609
    C140    18.99258   29.12853   28.13422
    C141    14.00214   23.82671   20.93734
    C142    17.94901   28.34898   27.58391
    C143    14.50523   24.71879   21.86878
    H144    16.20633   27.65869   21.71937
    H145    18.89944   29.70162   29.04488
    O146    16.44827   26.19193   26.29169
    H147    13.38347   23.03224   21.32783
    H148    16.99047   28.32833   28.08108
    H149    14.41301   24.51274   22.92492
    C150    13.71764   22.94491   18.70980
    C151    29.72321   23.60793   17.85956
    N152    28.74526   22.52630   17.86213
    C153    29.12429   21.29313   17.47709
    C154    27.53075   22.73803   18.44151
    C155    28.41183   20.22284   17.90052
    C156    27.25733   20.33425   18.73245
    H157    30.10514   21.17957   17.03956
    C158    26.84472   21.65780   19.01273
    N159    26.66570   17.97728   18.53273
    H160    27.16543   23.75118   18.52198
    C161    26.54581   19.13320   19.24628
    H162    28.87899   19.28389   17.64255
    H163    25.97429   21.86534   19.61745
    H164    26.23129   16.93286   20.19930
    N165    26.22214   16.89042   19.19023
    H166    26.14235   19.25795   20.25114
    H167    19.85884   22.08655   14.72717
    C168    26.26958   15.69464   18.62103
    H169    21.24129   19.94900   14.44608
    O170    26.47478   14.67834   19.25526
    C171    19.46977   21.09688   14.91581
    H172    22.25542   15.84333   15.40487
    C173    20.22517   19.93602   14.81178
    C174    26.16724   15.67553   17.10078
    H175    24.27461   16.65937   17.02686
    C176    25.01811   16.14977   16.43193
    N177    22.54644   16.51559   14.70954
    N178    21.65063   17.45340   14.41038
    N179    18.15636   21.07834   15.34646
    C180    27.10222   14.92864   16.40980
    C181    19.58419   18.71513   14.98916
    H182    27.95980   14.58773   16.97081
    C183    24.88382   15.89821   15.07166
    C184    20.39338   17.46268   14.92890
    C185    23.80176   16.60483   14.29950
    C186    26.95565   14.61337   15.01963
    C187    17.52543   19.88452   15.51662
    C188    25.79858   15.10588   14.30968
    C189    18.22189   18.69717   15.29655
    H190    19.98408   16.68873   15.57818
    H191    27.63655   13.91702   14.55287
    O192    24.10728   17.28170   13.31214
    H193    16.47351   19.80636   15.74847
    H194    25.54854   14.85941   13.28834
    H195    17.74222   17.73385   15.38788
    C196    17.61608   22.43325   15.54524
    H197    13.93974   22.08549   19.34240
    H198    29.19806   28.88260   20.46103
    H199    18.06442   22.87601   16.43466
    H200    30.21556   23.43713   16.90221
    H201    30.45852   23.37564   18.62992
    H202    29.48677   27.52604   21.29454
    H203    12.64791   22.74246   18.65693
    H204    18.05463   23.16253   14.86412
      S1    21.72855   26.13264   11.96733
      O2    20.77610   25.44287   11.14964
      O3    21.15120   26.44163   13.24787
      O4    21.86795   27.40655   11.34585
      O5    23.01268   25.47388   12.07560
      S1    19.98765   27.43212   16.68775
      O2    19.40257   28.34273   15.68660
      O3    21.40555   27.58813   16.62686
      O4    19.67563   26.01810   16.37685
      O5    19.47366   27.85725   17.99804

