174
frame 502 | Written by MDAnalysis XYZWriter (release 1.1.1)
      C1    22.57571   27.63915   20.63550
      O2    22.50525   26.71585   21.45448
      N3    21.48420   28.37907   20.49471
      N4    23.70927   27.91378   19.91996
      N5    20.59293   28.47048   21.47057
      C6    19.45215   29.17233   21.25041
      C7    18.35322   29.17972   22.25245
      H8    19.14007   29.73037   20.36763
      H9    21.48015   29.12892   19.81809
     N10    24.87400   27.37954   20.25038
     H11    23.67842   28.63001   19.20851
     C12    25.93861   27.62500   19.53082
     C13    27.20581   27.04366   20.11279
     H14    25.95764   27.91165   18.47936
     C15    18.36460   28.31914   23.36508
     C16    17.34601   30.13525   22.18684
     C17    17.33865   28.49158   24.32401
     N18    16.28076   29.30305   24.12881
     C19    16.25455   30.12581   23.01295
     H20    19.12238   27.56228   23.50417
     H21    17.41362   27.83217   25.17604
     H22    17.33716   30.77578   21.31733
     H23    15.33754   30.65391   22.79708
     C24    15.03584   29.31444   24.91982
     C25    14.83144   28.20685   25.91688
     H26    14.24982   29.40845   24.17053
     H27    15.01896   30.26464   25.45361
     C28    14.13536   27.02094   25.57379
     C29    14.03838   25.98432   26.54874
     C30    14.36685   26.24492   27.89940
     C31    14.92105   27.49373   28.27855
     C32    15.29744   28.43466   27.25544
     C33    28.29201   26.96591   19.23854
     C34    27.30275   26.37623   21.31602
     C35    28.40507   25.67944   21.70064
     C36    29.43160   26.25846   19.67312
     N37    29.48322   25.67647   20.89651
     H38    28.29391   27.42578   18.26134
     H39    30.30989   26.30036   19.04603
     H40    26.48783   26.39754   22.02444
     H41    28.34590   25.02702   22.55927
     C42    30.67977   24.81179   21.16202
     C43    30.70354   24.04738   22.49819
     H44    31.53304   25.48734   21.10157
     H45    30.74623   24.11177   20.32917
     C46    30.27652   22.68613   22.51240
     C47    30.32766   21.93124   23.75546
     C48    30.73507   22.60695   24.93200
     C49    31.09857   23.94375   24.96498
     C50    31.12822   24.66959   23.71174
     H51    14.57120   27.16694   30.32637
     C52    15.24897   27.80540   29.75970
     N53    16.70849   27.54707   30.13150
     O54    23.90511   27.45407   29.05612
     C55    17.10263   28.02535   31.35936
     C56    17.57163   26.83247   29.37663
     H57    16.28775   28.45555   31.92266
     C58    18.40251   27.83252   31.80442
     C59    18.91991   26.63587   29.81392
     C60    19.38875   27.24195   31.02047
     C61    24.00364   27.07511   30.26568
     N62    21.76291   27.04823   30.66062
     C63    20.77435   27.20344   31.51598
     H64    14.95185   28.81940   30.02733
     H65    18.67752   28.27417   32.75084
     H66    26.99311   25.58676   27.51850
     N67    22.96223   27.02970   31.12766
     H68    19.63901   26.13941   29.17923
     C69    28.04543   25.57957   27.76133
     N70    25.22172   26.65227   30.70221
     N71    26.16911   26.50713   29.76417
     H72    28.68780   25.06151   25.79134
     C73    29.04390   25.23085   26.79678
     C74    27.40111   26.24655   30.10276
     H75    32.25286   24.01278   26.67551
     C76    28.44443   25.95144   29.09867
     H77    25.26991   26.22894   31.61794
     H78    20.89421   27.19087   32.59930
     H79    23.02832   26.73765   32.09226
     N80    30.32187   25.10913   27.17720
     C81    31.45386   24.63363   26.27023
     H82    27.74272   26.14897   31.13324
     C83    29.76998   25.88745   29.40973
     C84    30.68098   25.49034   28.42756
     H85    30.14999   26.22774   30.36168
     H86    31.69966   25.62742   28.75907
     H87    32.00430   25.56234   26.11981
     H88    17.28028   26.34300   28.45906
     H89    12.65435   24.24140   26.74213
     C90    13.51608   24.58950   26.17261
     N91    14.52522   23.45024   26.00351
     O92    21.03231   21.14985   25.55183
     C93    14.08982   22.29270   25.49806
     C94    15.87171   23.61156   26.06559
     H95    13.02838   22.09840   25.45328
     C96    14.90583   21.21316   25.03306
     C97    16.71178   22.62523   25.56216
     C98    16.29801   21.37539   25.03503
     C99    20.79426   20.45347   24.59673
    N100    18.55468   20.58786   24.80797
    C101    17.27845   20.39749   24.46741
    H102    12.90486   24.71786   25.27927
    H103    14.52439   20.34010   24.52445
    H104    25.21109   21.83639   24.12962
    N105    19.54909   20.11271   24.18425
    H106    17.76376   22.81444   25.71689
    C107    25.95897   21.06834   23.99853
    N108    21.80780   19.93190   23.85709
    N109    23.05073   20.17174   24.11952
    H110    27.71914   22.26917   24.32616
    C111    27.41707   21.29023   23.98436
    C112    23.98118   19.60892   23.38952
    C113    25.47026   19.85658   23.58107
    H114    21.50975   19.63959   22.93741
    H115    16.93320   19.81617   23.61245
    H116    19.43162   19.34252   23.54152
    N117    28.28697   20.28094   23.73590
    C118    29.81913   20.45761   23.77197
    H119    23.79889   19.03824   22.47892
    C120    26.42081   18.84133   23.31826
    C121    27.80865   19.10328   23.38472
    H122    26.11839   17.82372   23.11974
    H123    28.49275   18.31989   23.09365
    H124    16.23372   24.51720   26.52945
    C125    29.67893   22.07173   21.31064
    C126    30.79362   21.42833   20.49292
    H127    29.18682   22.80775   20.67487
    H128    28.96030   21.34711   21.69352
    H129    31.70915   22.00194   20.34845
    H130    30.44093   21.11774   19.50943
    H131    31.07230   20.44679   20.87635
    C132    31.46508   26.13976   23.69696
    C133    30.22794   27.06211   24.00775
    H134    32.32226   26.29536   24.35204
    H135    31.93188   26.36849   22.73890
    H136    29.47206   27.07472   23.22252
    H137    30.42586   28.12307   24.16036
    H138    29.71471   26.80374   24.93400
    C139    30.81873   21.84835   26.25005
    C140    29.39025   21.61373   26.87925
    H141    31.32062   20.91614   25.99083
    H142    31.51745   22.28286   26.96496
    H143    29.62702   21.03224   27.77027
    H144    28.75129   21.00647   26.23811
    H145    28.80877   22.48701   27.17483
    C146    13.77091   26.78352   24.12901
    C147    14.86612   26.08363   23.44340
    H148    13.51020   27.71116   23.61948
    H149    12.82949   26.23610   24.08266
    H150    14.50133   25.92644   22.42835
    H151    14.96317   25.09507   23.89223
    H152    15.79118   26.65665   23.38009
    C153    15.89652   29.80285   27.68126
    C154    14.94863   30.87656   28.11895
    H155    16.55319   30.11375   26.86872
    H156    16.61686   29.70038   28.49287
    H157    15.42908   31.84475   28.25998
    H158    14.44676   30.54854   29.02925
    H159    14.26534   31.06648   27.29122
    C160    14.16391   25.25963   28.94843
    C161    12.75341   25.34991   29.49549
    H162    14.39542   24.26387   28.57033
    H163    14.97622   25.38713   29.66397
    H164    12.46512   24.58137   30.21267
    H165    12.06598   25.15411   28.67256
    H166    12.48953   26.33856   29.87105
    H167    30.13387   19.88399   24.64375
    H168    30.26460   19.97883   22.89994
      P1    23.25487   24.55692   25.17899
      O2    22.84147   26.00153   25.72530
      O3    22.01128   24.03342   24.41356
      H4    21.63403   23.35394   24.94234
      O5    23.86681   23.62441   26.29668
      O6    24.38954   24.86102   24.13568

