174
frame 205 | Written by MDAnalysis XYZWriter (release 1.1.1)
      C1    23.70966   29.38761   19.49348
      O2    23.47836   28.27902   19.96680
      N3    22.76293   30.24928   19.13149
      N4    24.95692   29.73676   19.09578
      N5    21.50276   30.04981   19.41444
      C6    20.76484   31.14602   19.48011
      C7    19.43635   31.09178   20.12040
      H8    21.13868   32.16975   19.49817
      H9    23.05234   31.12871   18.72783
     N10    25.93378   28.94117   19.38964
     H11    25.17183   30.56400   18.55764
     C12    27.16758   29.28985   19.00480
     C13    28.43526   28.46040   19.31981
     H14    27.45295   30.12931   18.37079
     C15    19.17499   30.34748   21.30732
     C16    18.30603   31.75064   19.55620
     C17    17.90077   30.38091   21.87321
     N18    16.87167   31.05639   21.31178
     C19    17.07533   31.77353   20.17327
     H20    20.02691   30.02299   21.88641
     H21    17.71272   29.88236   22.81262
     H22    18.29918   32.23931   18.59310
     H23    16.28051   32.31647   19.68349
     C24    15.50323   31.01815   21.80710
     C25    15.19981   29.96131   22.85766
     H26    14.87964   30.86879   20.92567
     H27    15.25483   32.02374   22.14651
     C28    14.55246   28.71011   22.49704
     C29    14.56660   27.59623   23.38182
     C30    14.94442   27.82318   24.73514
     C31    15.31173   29.15439   25.18380
     C32    15.38642   30.20070   24.25927
     C33    29.70074   28.84990   18.92295
     C34    28.38242   27.27234   20.12055
     C35    29.48124   26.49223   20.47396
     C36    30.85123   28.11704   19.43657
     N37    30.67132   27.06116   20.30207
     H38    29.81818   29.71404   18.28587
     H39    31.85076   28.46154   19.21597
     H40    27.42001   26.98802   20.51971
     H41    29.41262   25.65859   21.15715
     C42    31.88722   26.43311   20.88723
     C43    31.74984   25.65578   22.19264
     H44    32.67548   27.17566   21.01116
     H45    32.25521   25.84759   20.04471
     C46    31.64032   24.22849   22.18778
     C47    31.39902   23.51460   23.35498
     C48    31.55444   24.18216   24.59866
     C49    31.70333   25.60482   24.63125
     C50    31.78634   26.33874   23.43785
     H51    14.82431   28.73821   27.24603
     C52    15.43238   29.42585   26.65824
     N53    16.80180   29.51467   27.24430
     O54    23.66779   28.33967   27.58647
     C55    16.84498   29.99188   28.53968
     C56    17.93019   28.97976   26.63635
     H57    15.94391   30.42603   28.94708
     C58    18.05653   30.09400   29.23700
     C59    19.18169   29.09912   27.33171
     C60    19.24484   29.61740   28.64913
     C61    23.82162   28.76196   28.75351
     N62    21.65139   29.40938   28.86997
     C63    20.50344   29.68411   29.44654
     H64    14.93401   30.36938   26.88073
     H65    18.09378   30.64009   30.16802
     H66    27.30615   27.15620   26.33186
     N67    22.83664   29.37334   29.43934
     H68    20.03880   28.70998   26.80225
     C69    28.25594   27.14422   26.84582
     N70    25.01025   28.65491   29.33435
     N71    26.00562   28.10230   28.57420
     H72    29.23309   26.27697   25.10354
     C73    29.34995   26.66281   26.10547
     C74    27.29631   28.01393   29.04411
     H75    32.52624   25.81608   26.51823
     C76    28.40619   27.53048   28.18348
     H77    25.18101   28.94099   30.28782
     H78    20.27246   29.98933   30.46712
     H79    22.97125   29.40474   30.43984
     N80    30.60093   26.72721   26.66170
     C81    31.81776   26.37469   25.90656
     H82    27.63959   28.27396   30.04543
     C83    29.69337   27.50112   28.75486
     C84    30.72901   26.97894   28.02221
     H85    29.75223   27.71668   29.81150
     H86    31.69557   26.76833   28.45559
     H87    32.39230   27.29998   25.86345
     H88    17.92071   28.49775   25.66993
     H89    13.70211   25.65202   23.49498
     C90    14.38306   26.18883   22.83449
     N91    15.62090   25.39537   22.61962
     O92    22.25369   22.49370   24.07428
     C93    15.54639   24.31898   21.79812
     C94    16.81290   25.64113   23.31715
     H95    14.60040   24.13533   21.31049
     C96    16.65969   23.51117   21.51222
     C97    17.98293   24.89816   23.02076
     C98    17.91684   23.81240   22.15860
     C99    22.16123   21.89084   22.97961
    N100    20.10202   22.88016   22.60162
    C101    19.10344   23.01263   21.73790
    H102    13.81534   26.17686   21.90409
    H103    16.52129   22.73233   20.77692
    H104    26.48080   23.13622   22.82265
    N105    21.11482   22.14065   22.19329
    H106    18.92146   25.10924   23.51170
    C107    27.20552   22.34019   22.90928
    N108    23.15969   21.19408   22.46728
    N109    24.36494   21.33641   23.03167
    H110    28.70528   23.73851   23.21087
    C111    28.53394   22.68368   23.05476
    C112    25.35734   20.67850   22.47654
    C113    26.77513   20.93866   22.86960
    H114    23.10044   20.52844   21.70997
    H115    19.03853   22.60133   20.73056
    H116    21.04538   21.60017   21.34290
    N117    29.51392   21.73061   23.13382
    C118    30.93329   22.03498   23.31903
    H119    25.28899   20.04302   21.59359
    C120    27.77811   19.96083   23.01624
    C121    29.13011   20.40772   23.15493
    H122    27.54443   18.90873   23.08607
    H123    29.91860   19.66979   23.14331
    H124    16.92510   26.35066   24.12362
    C125    31.52944   23.56439   20.80932
    C126    32.96429   23.25978   20.35276
    H127    30.90842   24.17230   20.15138
    H128    30.97421   22.62836   20.86982
    H129    33.04607   22.88144   19.33381
    H130    33.46397   22.56812   21.03102
    H131    33.50156   24.20229   20.45822
    C132    31.78519   27.86871   23.42533
    C133    30.49744   28.54888   23.59999
    H134    32.36670   28.32972   24.22372
    H135    32.33241   28.23622   22.55724
    H136    29.89033   28.28140   22.73514
    H137    30.65371   29.62755   23.61247
    H138    29.95272   28.35422   24.52383
    C139    31.52288   23.37764   25.91679
    C140    30.17224   23.07117   26.52450
    H141    32.13780   22.48632   25.79219
    H142    32.07669   23.95842   26.65441
    H143    29.66531   22.29735   25.94802
    H144    29.43929   23.84958   26.31248
    H145    30.16245   22.69964   27.54918
    C146    14.03007   28.45158   21.10781
    C147    15.09684   27.82224   20.19741
    H148    13.71049   29.38410   20.64265
    H149    13.13244   27.85015   20.96416
    H150    15.86940   28.57100   20.02246
    H151    14.58955   27.64569   19.24895
    H152    15.54598   26.91135   20.59320
    C153    15.62803   31.58673   24.72143
    C154    14.28614   32.33042   24.84159
    H155    16.19595   32.21996   24.03983
    H156    16.18427   31.63555   25.65755
    H157    13.73704   31.79039   25.61292
    H158    13.75431   32.11125   23.91573
    H159    14.32033   33.39882   25.05480
    C160    14.82293   26.66570   25.65766
    C161    13.41346   26.45839   26.26998
    H162    15.15151   25.76674   25.13613
    H163    15.47619   26.81090   26.51805
    H164    13.46265   25.67619   27.02750
    H165    12.74134   26.00063   25.54416
    H166    12.89896   27.32034   26.69477
    H167    31.14789   21.44809   24.21213
    H168    31.51364   21.50357   22.56479
      P1    24.24725   26.00762   23.34716
      O2    23.59872   27.36800   23.87163
      O3    23.27904   25.18450   22.58072
      H4    22.53010   24.99148   23.11497
      O5    24.71630   25.22787   24.63721
      O6    25.50227   26.38530   22.52469

