180
frame 691 | Written by MDAnalysis XYZWriter (release 1.1.1)
      C1    27.45980   27.50113   20.20590
      O2    27.85520   26.80840   21.12631
      N3    26.29496   28.14305   20.33228
      N4    28.17118   27.47828   19.05532
      N5    25.53119   28.02272   21.33963
      C6    24.69601   29.08913   21.36263
      C7    23.71216   29.36582   22.42981
      H8    24.48719   29.73563   20.51026
      H9    25.92771   28.58824   19.50341
     N10    29.37877   26.87505   19.03302
     H11    27.85437   27.93568   18.21239
     C12    29.97614   26.72958   17.79650
     C13    31.20020   25.90650   17.66391
     H14    29.59884   26.91096   16.79010
     C15    23.38493   28.36298   23.32828
     C16    23.25742   30.66961   22.64934
     C17    22.47785   28.63183   24.38847
     N18    22.07565   29.92543   24.62190
     C19    22.44972   30.90914   23.77535
     H20    23.84009   27.38672   23.24992
     H21    22.07717   27.81167   24.96570
     H22    23.30431   31.56815   22.05198
     H23    21.99600   31.88629   23.85092
     C24    21.03689   30.24270   25.52258
     C25    21.08877   29.34695   26.75311
     H26    20.08999   30.27122   24.98343
     H27    21.13846   31.27639   25.85313
     C28    20.28935   28.21261   26.90122
     C29    20.45307   27.31070   28.00863
     C30    21.33718   27.61367   29.05643
     C31    22.14104   28.82298   28.91228
     C32    22.10428   29.62587   27.73069
     C33    32.13583   25.94981   16.62373
     C34    31.43645   24.94980   18.72852
     C35    32.61384   24.17910   18.73236
     C36    33.28769   25.15746   16.65875
     N37    33.47909   24.29209   17.70425
     H38    32.02806   26.64097   15.80087
     H39    34.01888   25.38154   15.89617
     H40    30.67584   24.74466   19.46730
     H41    32.69128   23.41191   19.48854
     C42    34.75166   23.62204   17.74606
     C43    35.03555   22.64863   18.84228
     H44    35.53295   24.38152   17.71641
     H45    34.92765   23.07307   16.82099
     C46    34.39218   21.40667   18.92726
     C47    34.74696   20.40019   19.91948
     C48    35.80651   20.65866   20.81268
     C49    36.37668   21.96239   20.81536
     C50    36.03115   22.94236   19.83553
     H51    22.86400   28.78694   30.96709
     C52    23.11088   29.15963   29.97298
     N53    24.47171   28.59739   29.70485
     O54    29.94543   24.11120   26.98032
     C55    25.52492   29.11658   30.42741
     C56    24.65924   27.45555   28.98682
     H57    25.41959   29.94339   31.11421
     C58    26.83734   28.65028   30.20690
     C59    25.96884   26.92732   28.77968
     C60    27.06921   27.57754   29.37774
     C61    30.64196   24.93442   27.50985
     N62    28.74060   26.09072   28.39841
     C63    28.47178   27.12086   29.17866
     H64    23.14088   30.24917   29.98379
     H65    27.62670   29.17810   30.72141
     H66    33.06436   23.39843   23.93506
     N67    30.07707   25.80313   28.34643
     H68    26.26035   26.07414   28.18510
     C69    34.13930   23.45996   24.01937
     N70    31.98890   25.04529   27.28318
     N71    32.53312   24.33387   26.34780
     H72    34.34032   22.77940   22.06330
     C73    34.89404   23.03941   22.95335
     C74    33.88440   24.53926   26.30489
     H75    37.59116   21.58079   22.64045
     C76    34.72189   24.00698   25.18150
     H77    32.49203   25.80654   27.71615
     H78    29.17927   27.74638   29.72298
     H79    30.73239   26.41533   28.81104
     N80    36.22265   23.05415   23.04139
     C81    37.09033   22.36839   22.07746
     H82    34.41364   24.99854   27.13979
     C83    36.14818   23.91002   25.28069
     C84    36.82379   23.55523   24.11946
     H85    36.76235   24.22750   26.11039
     H86    37.90038   23.55110   24.20503
     H87    37.94550   23.03874   21.99131
     H88    23.83914   26.92385   28.52732
     H89    19.69317   25.50563   28.93238
     C90    19.90079   25.89583   27.93602
     N91    20.73606   24.84812   27.23452
     O92    26.82081   22.16053   23.79346
     C93    20.26204   23.59411   27.00782
     C94    21.94456   25.13164   26.71513
     H95    19.24603   23.34955   27.28040
     C96    21.04408   22.53513   26.45131
     C97    22.75296   24.10569   26.13205
     C98    22.31847   22.80039   25.98614
     C99    26.35171   21.03310   23.97206
    N100    24.40942   21.86019   24.78698
    C101    23.21581   21.70965   25.37804
    H102    18.96970   25.83391   27.37270
    H103    20.63419   21.53779   26.39050
    H104    30.77137   21.05607   22.68769
    N105    25.09160   20.81113   24.39889
    H106    23.78994   24.24838   25.86614
    C107    31.10181   20.13934   22.22206
    N108    27.00469   19.93688   23.64346
    N109    28.28139   20.00261   23.35707
    H110    32.83010   21.02739   21.32244
    C111    32.29979   20.10365   21.50103
    C112    28.99102   18.91993   22.90977
    C113    30.37222   18.97087   22.32361
    H114    26.64564   19.02198   23.87614
    H115    22.84530   20.70772   25.59469
    H116    24.73080   19.88378   24.57192
    N117    32.83380   19.00126   20.91313
    C118    33.99133   19.06796   19.94522
    H119    28.51735   18.00617   22.55090
    C120    30.96833   17.80002   21.81273
    C121    32.17529   17.84378   21.11754
    H122    30.56844   16.81564   22.00634
    H123    32.58636   16.93030   20.71386
    H124    22.42170   26.09381   26.82907
    C125    33.45155   21.04293   17.83421
    C126    34.25094   20.36980   16.70102
    H127    32.84828   21.86553   17.45017
    H128    32.64573   20.40525   18.19767
    H129    34.70823   19.48705   17.14794
    H130    34.97921   21.04521   16.25209
    H131    33.53135   20.00942   15.96589
    C132    36.77127   24.27654   19.81089
    C133    35.84750   25.40788   20.31588
    H134    37.73648   24.23461   20.31557
    H135    37.05505   24.51011   18.78473
    H136    34.92052   25.54742   19.75970
    H137    36.42493   26.31458   20.13543
    H138    35.56940   25.31709   21.36589
    C139    36.33855   19.58993   21.73220
    C140    35.85507   19.45970   23.17052
    H141    36.04811   18.65503   21.25291
    H142    37.42824   19.56448   21.72674
    H143    35.94918   20.32982   23.82024
    H144    36.46531   18.77202   23.75602
    H145    34.82003   19.12265   23.22708
    C146    19.16469   27.99170   25.93310
    C147    19.54987   27.18240   24.71693
    H148    18.64522   28.91056   25.66116
    H149    18.41409   27.33559   26.37379
    H150    20.11240   26.36660   25.17095
    H151    20.16728   27.70390   23.98553
    H152    18.72197   26.65410   24.24409
    C153    23.17303   30.68027   27.50315
    C154    22.81968   32.15312   27.89180
    H155    23.59535   30.74025   26.50007
    H156    24.08414   30.41814   28.04099
    H157    22.46621   32.30135   28.91219
    H158    21.98769   32.54329   27.30557
    H159    23.63806   32.83697   27.66659
    C160    21.55062   26.63815   30.24965
    C161    20.35730   26.90880   31.16913
    H162    21.35813   25.63882   29.85929
    H163    22.49339   26.69749   30.79348
    H164    20.55722   26.35645   32.08730
    H165    19.46613   26.47492   30.71562
    H166    20.16612   27.97470   31.29330
    H167    34.69413   18.23480   19.95042
    H168    33.62623   18.80226   18.95316
      P1    27.81952   30.84538   24.40502
      O2    28.00407   31.80953   23.29024
      O3    26.77630   29.83479   24.06991
      H4    26.37814   30.01003   23.23663
      O5    27.35482   31.65462   25.65921
      O6    29.15214   30.19175   24.81083
      P1    28.53819   13.21404   18.58875
      O2    28.98324   12.91838   17.16381
      O3    27.30927   12.37625   18.93475
      H4    26.52729   12.46821   18.42127
      O5    28.34431   14.73577   18.70229
      O6    29.80363   12.94442   19.50219

