180
frame 865 | Written by MDAnalysis XYZWriter (release 1.1.1)
      C1    29.93239   29.24231   20.56587
      O2    30.29687   28.72162   21.64450
      N3    28.77822   29.96909   20.47658
      N4    30.74571   29.19865   19.45228
      N5    27.87359   30.05688   21.37017
      C6    26.90529   30.89357   21.11509
      C7    25.75272   30.89668   22.11830
      H8    26.81675   31.55735   20.25506
      H9    28.56554   30.29834   19.54574
     N10    31.70707   28.31966   19.29085
     H11    30.46471   29.71189   18.62903
     C12    32.27116   28.24594   18.06208
     C13    33.43916   27.33072   17.79559
     H14    32.04113   28.81749   17.16291
     C15    25.43079   29.73331   22.81312
     C16    25.01436   32.05848   22.41996
     C17    24.43651   29.74010   23.81949
     N18    23.69142   30.83467   24.02555
     C19    23.93388   32.00334   23.34235
     H20    25.92691   28.78878   22.64540
     H21    24.08020   28.82134   24.26144
     H22    25.22536   33.02266   21.98150
     H23    23.26506   32.84149   23.47112
     C24    22.49374   30.72844   24.83109
     C25    22.53730   29.74337   26.00916
     H26    21.70559   30.53934   24.10228
     H27    22.28705   31.78189   25.01982
     C28    21.76945   28.55668   25.95884
     C29    21.98315   27.64293   27.06001
     C30    22.85090   27.92557   28.16891
     C31    23.55610   29.09927   28.22944
     C32    23.39516   30.01812   27.15343
     C33    34.26049   27.59182   16.66785
     C34    33.75714   26.24734   18.61390
     C35    34.80310   25.35209   18.29092
     C36    35.29220   26.73223   16.45296
     N37    35.53745   25.58895   17.20667
     H38    34.19601   28.52172   16.12239
     H39    36.00303   27.09912   15.72735
     H40    33.20909   25.93898   19.49194
     H41    34.94222   24.46281   18.88776
     C42    36.67781   24.61052   16.81359
     C43    36.82515   23.42750   17.75902
     H44    37.56602   25.22003   16.64721
     H45    36.36508   24.18586   15.85967
     C46    36.03199   22.30247   17.64205
     C47    36.04676   21.32188   18.65152
     C48    36.72187   21.52256   19.85466
     C49    37.59944   22.70804   19.93198
     C50    37.66091   23.63210   18.86615
     H51    23.96381   29.14721   30.38324
     C52    24.45944   29.38159   29.44116
     N53    25.81516   28.87441   29.33711
     O54    31.52106   25.79857   25.79140
     C55    26.66598   29.01672   30.41894
     C56    26.33227   28.45092   28.14072
     H57    26.30986   29.56017   31.28164
     C58    27.96142   28.49364   30.34383
     C59    27.67472   27.98985   28.03381
     C60    28.54723   28.06728   29.14976
     C61    32.30974   26.27574   26.65775
     N62    30.52768   27.20973   27.89568
     C63    30.00022   27.70241   29.01775
     H64    24.49077   30.44416   29.68214
     H65    28.60069   28.66567   31.19713
     H66    34.78733   25.22089   23.12822
     N67    31.85229   26.89669   27.74411
     H68    28.02600   27.75875   27.03902
     C69    35.73706   24.72263   23.25526
     N70    33.67266   25.95517   26.66098
     N71    34.26688   25.41977   25.62724
     H72    35.83309   24.24729   21.18466
     C73    36.37014   24.17061   22.11852
     C74    35.55170   25.14973   25.72333
     H75    38.79162   21.96286   21.46745
     C76    36.32293   24.70838   24.52174
     H77    34.25338   26.25122   27.43249
     H78    30.57299   27.90369   29.92302
     H79    32.53115   27.29831   28.37493
     N80    37.54467   23.52108   22.35550
     C81    38.31191   22.90413   21.19916
     H82    36.16478   25.38835   26.59241
     C83    37.55739   24.08066   24.68832
     C84    38.10331   23.40962   23.58607
     H85    38.03680   23.94353   25.64631
     H86    39.01830   22.84427   23.68396
     H87    39.17948   23.54494   21.04168
     H88    25.66256   28.34410   27.30020
     H89    20.88771   26.03680   27.96944
     C90    21.43271   26.23385   27.04626
     N91    22.43694   25.17772   26.62697
     O92    28.42492   22.85728   23.36188
     C93    21.98245   23.89625   26.54125
     C94    23.66709   25.47386   26.07752
     H95    21.00514   23.67881   26.94621
     C96    22.71553   22.85171   25.92256
     C97    24.44962   24.40812   25.57215
     C98    24.00769   23.10116   25.42319
     C99    27.84922   21.84082   23.07797
    N100    26.08790   22.21874   24.49677
    C101    24.78486   22.03734   24.68431
    H102    20.61940   26.12755   26.32840
    H103    22.18406   21.91550   25.83628
    H104    31.48255   22.26232   20.09564
    N105    26.61607   21.58457   23.48786
    H106    25.43396   24.70567   25.24209
    C107    31.93382   21.30588   19.87659
    N108    28.38452   20.85583   22.32551
    N109    29.45775   21.03839   21.62032
    H110    33.72655   22.23096   19.34370
    C111    33.22671   21.27360   19.34938
    C112    29.90899   20.05040   20.79367
    C113    31.22482   20.11412   20.07391
    H114    27.88971   19.98023   22.23287
    H115    24.19722   21.38553   24.03784
    H116    26.15057   20.73503   23.20204
    N117    33.78175   20.14062   19.01113
    C118    35.18278   20.08446   18.52591
    H119    29.48999   19.05072   20.67893
    C120    31.74223   18.92198   19.52937
    C121    33.02328   18.95191   18.99776
    H122    31.22772   17.97561   19.60725
    H123    33.54791   18.12537   18.54169
    H124    24.15281   26.43769   26.11659
    C125    35.19046   22.08040   16.44858
    C126    36.02954   21.56728   15.27316
    H127    34.58468   22.96391   16.24720
    H128    34.36423   21.40067   16.65695
    H129    36.69593   22.35872   14.93017
    H130    35.50713   21.14816   14.41320
    H131    36.65943   20.74527   15.61322
    C132    38.69380   24.73588   18.90907
    C133    38.13074   25.86256   19.73260
    H134    39.61613   24.40919   19.38938
    H135    38.99366   25.03655   17.90519
    H136    37.24047   26.27163   19.25491
    H137    38.77473   26.73954   19.79802
    H138    37.84676   25.48769   20.71593
    C139    36.67387   20.51840   20.99286
    C140    35.42070   20.56184   21.90147
    H141    36.64399   19.50004   20.60536
    H142    37.61446   20.40557   21.53198
    H143    35.61706   20.08147   22.86001
    H144    34.56715   20.03049   21.48050
    H145    35.26722   21.62647   22.07779
    C146    20.77656   28.32220   24.86626
    C147    21.25680   27.63718   23.56052
    H148    20.26254   29.22141   24.52670
    H149    19.96217   27.67876   25.19919
    H150    21.87301   28.24966   22.90229
    H151    20.42496   27.28833   22.94860
    H152    21.72783   26.71397   23.89803
    C153    24.10084   31.34657   27.26941
    C154    23.29624   32.35433   28.04434
    H155    24.21684   31.83191   26.30034
    H156    25.15114   31.35334   27.56079
    H157    23.22093   32.04825   29.08777
    H158    22.31525   32.51978   27.59894
    H159    23.75665   33.34186   28.01420
    C160    22.97386   26.86809   29.27501
    C161    22.01975   26.92725   30.44666
    H162    22.95461   25.85030   28.88535
    H163    23.99431   26.87579   29.65807
    H164    22.27550   26.15017   31.16696
    H165    20.96202   26.80930   30.21125
    H166    22.20216   27.85890   30.98223
    H167    35.72794   19.24438   18.95623
    H168    35.26625   19.67773   17.51809
      P1    29.28788   32.64704   24.82977
      O2    29.09416   33.77309   23.77777
      O3    28.52191   31.43654   24.35156
      H4    28.38538   31.47350   23.42227
      O5    28.68675   33.21400   26.12436
      O6    30.78923   32.34122   25.07073
      P1    31.10120   13.58266   16.09688
      O2    31.57194   12.87034   14.81613
      O3    30.45739   12.65790   17.09446
      H4    31.12608   12.19532   17.56613
      O5    30.09797   14.64679   15.62400
      O6    32.24534   14.34572   16.82854

