175
frame 743 | Written by MDAnalysis XYZWriter (release 1.1.1)
      C1    22.61443   25.20247   19.68782
      O2    22.86845   25.35409   20.85257
      N3    21.42208   25.35685   19.14679
      N4    23.60599   24.82481   18.89200
      N5    20.37610   25.58764   19.96012
      C6    19.14311   25.51369   19.40471
      C7    18.04491   25.69983   20.35659
      H8    18.74636   25.33570   18.40520
      H9    21.23523   25.03415   18.20815
     N10    24.73975   24.28642   19.34446
     H11    23.46110   24.87634   17.89377
     C12    25.47452   23.58268   18.48058
     C13    26.69389   22.82247   18.96034
     H14    25.25403   23.29132   17.45365
     C15    18.04739   25.09298   21.62477
     C16    16.92468   26.52671   20.07937
     C17    17.00179   25.38093   22.57668
     N18    15.90629   26.15143   22.24991
     C19    15.92900   26.80303   21.04005
     H20    18.79770   24.38229   21.93839
     H21    17.02198   24.83118   23.50608
     H22    16.77275   27.03335   19.13776
     H23    15.12200   27.46265   20.75711
     C24    14.69231   26.20449   23.08303
     C25    14.84852   25.71609   24.48509
     H26    13.84812   25.78122   22.53871
     H27    14.35254   27.23982   23.11022
     C28    14.61605   24.36384   24.89313
     C29    14.58976   23.89515   26.22213
     C30    14.84857   24.81646   27.25596
     C31    15.21910   26.16111   26.85219
     C32    15.09181   26.59547   25.52251
     C33    27.72944   22.45602   18.05593
     C34    26.73621   22.25849   20.24432
     C35    27.96119   21.69924   20.67951
     C36    28.84573   21.68604   18.53164
     N37    28.95436   21.33333   19.83150
     H38    27.63843   22.81970   17.04309
     H39    29.62473   21.42198   17.83177
     H40    25.99725   22.52739   20.98462
     H41    27.98870   21.48054   21.73678
     C42    30.25312   20.76792   20.28345
     C43    30.57390   20.70786   21.74605
     H44    31.05478   21.27990   19.75118
     H45    30.21926   19.76844   19.84987
     C46    30.43135   19.44434   22.38387
     C47    30.81843   19.28729   23.79148
     C48    31.25830   20.46877   24.51960
     C49    31.42464   21.67606   23.81544
     C50    31.14802   21.82274   22.41806
     H51    15.22229   26.81727   28.85820
     C52    15.67185   27.12146   27.91297
     N53    17.10068   27.20744   28.11386
     O54    23.80571   25.90003   26.08491
     C55    17.56271   28.20833   28.81194
     C56    17.92483   26.26668   27.64618
     H57    16.87578   29.01847   29.00735
     C58    18.94754   28.35233   29.08172
     C59    19.31242   26.36385   27.80665
     C60    19.83359   27.32826   28.64810
     C61    24.21048   26.43499   27.12316
     N62    22.08540   27.05123   27.79261
     C63    21.24277   27.24968   28.83667
     H64    15.33839   28.11944   27.62847
     H65    19.32316   29.27575   29.49718
     H66    27.43290   23.99323   25.48934
     N67    23.38298   26.98827   28.02429
     H68    20.03535   25.64546   27.44931
     C69    28.47369   24.26064   25.59733
     N70    25.48175   26.40039   27.48322
     N71    26.39560   26.02544   26.65165
     H72    29.16858   22.45495   24.68321
     C73    29.48429   23.42216   25.04549
     C74    27.67742   26.08043   27.08050
     H75    32.47441   22.78884   25.43249
     C76    28.72954   25.33923   26.40461
     H77    25.77572   26.95072   28.27746
     H78    21.51347   27.17113   29.88960
     H79    23.83575   27.52676   28.74894
     N80    30.74475   23.80969   25.11349
     C81    31.84325   22.97226   24.56294
     H82    28.06722   26.74549   27.85112
     C83    30.10432   25.67990   26.44611
     C84    31.05492   24.93362   25.68630
     H85    30.39351   26.66068   26.79371
     H86    32.09355   25.22495   25.73899
     H87    32.57089   23.55020   23.99318
     H88    17.58835   25.51226   26.95045
     H89    13.88722   22.43502   27.57759
     C90    14.32082   22.48438   26.57877
     N91    15.52631   21.64002   26.69773
     O92    22.24249   18.76519   25.42531
     C93    15.28281   20.37430   27.00880
     C94    16.79232   22.05935   26.62445
     H95    14.28595   19.97091   27.10855
     C96    16.26504   19.47446   27.36237
     C97    17.85557   21.21895   26.92776
     C98    17.61402   19.93115   27.35818
     C99    22.15399   18.57424   26.63057
    N100    19.89029   19.13892   26.94531
    C101    18.72225   19.05070   27.69330
    H102    13.57521   22.03501   25.92286
    H103    16.14779   18.43602   27.63493
    H104    26.32085   19.60641   25.75097
    N105    21.00994   18.67311   27.40972
    H106    18.84498   21.64063   26.82953
    C107    27.08101   18.84847   25.86967
    N108    23.19199   18.22533   27.40265
    N109    24.37617   18.29708   26.89550
    H110    28.43783   19.81957   24.66339
    C111    28.25767   18.85426   25.11296
    C112    25.44434   17.74568   27.42562
    C113    26.78473   17.78692   26.68456
    H114    23.05273   18.11282   28.39666
    H115    18.59223   18.58585   28.67060
    H116    20.93800   18.33789   28.35975
    N117    29.22332   17.93418   25.24099
    C118    30.55531   17.99510   24.57020
    H119    25.43817   17.19266   28.36490
    C120    27.77951   16.76420   26.80766
    C121    28.96327   16.86572   26.02214
    H122    27.49716   15.94424   27.45136
    H123    29.73266   16.10855   26.05602
    H124    16.95873   23.07128   26.28575
    C125    30.00416   18.21300   21.63460
    C126    31.12612   17.30177   21.17542
    H127    29.31451   18.38916   20.80910
    H128    29.34270   17.66070   22.30208
    H129    31.81499   17.75617   20.46333
    H130    30.52385   16.58248   20.62045
    H131    31.74480   16.84636   21.94868
    C132    31.64435   23.03359   21.66067
    C133    30.67822   24.13223   21.65625
    H134    32.58621   23.40408   22.06531
    H135    31.81722   22.74530   20.62380
    H136    30.48545   24.56773   22.63671
    H137    29.65542   23.88555   21.37139
    H138    31.06425   24.84739   20.92988
    C139    31.72944   20.38764   25.97591
    C140    30.71356   20.77817   27.05219
    H141    31.99859   19.34341   26.13480
    H142    32.69376   20.89190   26.03846
    H143    30.40335   21.82061   27.12435
    H144    31.14138   20.50381   28.01645
    H145    29.75770   20.25486   27.02823
    C146    14.33658   23.33826   23.85381
    C147    15.45630   22.38353   23.55968
    H148    14.07127   23.74498   22.87796
    H149    13.44738   22.77324   24.13342
    H150    15.22652   21.84198   22.64205
    H151    15.56704   21.52087   24.21668
    H152    16.40076   22.92188   23.63893
    C153    15.45636   27.99532   25.14615
    C154    14.24595   28.97104   25.36857
    H155    15.90778   27.95249   24.15495
    H156    16.29726   28.26857   25.78358
    H157    13.37520   28.51882   24.89381
    H158    14.38122   30.02045   25.10674
    H159    13.97505   28.98782   26.42423
    C160    15.05090   24.39338   28.69020
    C161    13.83139   24.78042   29.61800
    H162    15.33920   23.34568   28.77568
    H163    15.93657   24.93437   29.02340
    H164    13.82290   25.85755   29.78481
    H165    13.91384   24.34624   30.61439
    H166    12.88035   24.44286   29.20609
    H167    31.38498   17.70321   25.21406
    H168    30.58808   17.13791   23.89770
      H1    22.42280   22.41434   20.81779
      O2    23.94433   20.77132   23.17171
      C3    22.98293   22.36688   21.75165
      C4    23.25167   20.98262   22.16829
      H5    22.32611   22.83665   22.48378
      O6    22.65700   20.09456   21.54716
      H7    23.85500   22.98931   21.55121

