175
frame 858 | Written by MDAnalysis XYZWriter (release 1.1.1)
      C1    22.88209   22.74860   19.45548
      O2    23.18881   23.51826   20.34942
      N3    21.60989   22.56433   19.10975
      N4    23.75155   22.03695   18.71305
      N5    20.62650   23.11164   19.86400
      C6    19.38489   22.71803   19.64811
      C7    18.21562   23.16783   20.44258
      H8    19.14096   21.90039   18.96983
      H9    21.32366   21.99880   18.32339
     N10    25.01966   22.04494   18.98713
     H11    23.38013   21.39547   18.02700
     C12    25.68664   21.07081   18.31051
     C13    27.04736   20.66377   18.65448
     H14    25.22590   20.28854   17.70729
     C15    18.28217   23.29800   21.81960
     C16    16.97319   23.37322   19.81912
     C17    17.17494   23.69235   22.56948
     N18    15.96631   23.64008   22.01012
     C19    15.82720   23.61231   20.64417
     H20    19.29419   23.32800   22.19553
     H21    17.36473   23.82242   23.62468
     H22    16.95899   23.38198   18.73925
     H23    14.82753   23.60887   20.23545
     C24    14.76224   23.76143   22.90676
     C25    14.99136   23.47552   24.38472
     H26    13.96257   23.14683   22.49335
     H27    14.33582   24.76213   22.83693
     C28    14.93405   22.11360   24.84993
     C29    15.10304   21.87298   26.25034
     C30    15.34749   22.94190   27.14945
     C31    15.47923   24.28831   26.63611
     C32    15.34762   24.52396   25.26878
     C33    27.96596   20.32389   17.64781
     C34    27.42095   20.67276   20.03201
     C35    28.72479   20.27160   20.34927
     C36    29.26359   19.94268   18.07355
     N37    29.58603   19.88537   19.38569
     H38    27.60688   20.34422   16.62945
     H39    29.82467   19.49634   17.26586
     H40    26.66939   20.90161   20.77308
     H41    28.84478   20.12293   21.41224
     C42    30.91535   19.43702   19.62657
     C43    31.30444   19.41850   21.11070
     H44    31.45077   20.11579   18.96271
     H45    31.09444   18.49022   19.11707
     C46    31.03288   18.27382   21.89002
     C47    31.37957   18.30985   23.25988
     C48    31.89285   19.51046   23.87040
     C49    32.09569   20.69777   23.08678
     C50    31.89275   20.58286   21.70301
     H51    15.66837   25.32902   28.50567
     C52    16.00942   25.41217   27.47374
     N53    17.48435   25.59220   27.40787
     O54    24.49199   24.21238   25.63373
     C55    17.96262   26.67731   28.04438
     C56    18.30173   24.75989   26.71195
     H57    17.28581   27.42268   28.43521
     C58    19.34153   26.93394   28.02895
     C59    19.69179   24.90850   26.71021
     C60    20.20197   26.06286   27.32246
     C61    24.80719   25.21055   26.26816
     N62    22.59521   25.84152   26.57042
     C63    21.65869   26.44679   27.33423
     H64    15.46527   26.31918   27.21043
     H65    19.66635   27.81883   28.55608
     H66    28.01698   23.01393   24.49133
     N67    23.86302   26.06901   26.74209
     H68    20.28625   24.16195   26.20457
     C69    29.06001   23.26468   24.61624
     N70    26.06592   25.62679   26.35031
     N71    27.03120   24.88231   25.92294
     H72    29.82963   21.69019   23.35841
     C73    30.08196   22.43495   24.09873
     C74    28.30247   25.33471   25.86457
     H75    33.23352   21.85264   24.64935
     C76    29.40296   24.43762   25.30173
     H77    26.31659   26.49536   26.80072
     H78    21.83512   27.33344   27.94319
     H79    24.08844   26.95573   27.16990
     N80    31.42433   22.76618   24.25221
     C81    32.55003   21.95995   23.80707
     H82    28.79328   26.20165   26.30686
     C83    30.75922   24.70753   25.49282
     C84    31.72118   23.90073   24.90049
     H85    31.02448   25.54750   26.11770
     H86    32.74007   24.20794   25.08455
     H87    33.14894   22.65090   23.21378
     H88    17.88826   23.97726   26.09315
     H89    14.46166   20.43266   27.60947
     C90    15.09860   20.44777   26.72507
     N91    16.42863   19.85579   27.06495
     O92    23.15205   18.29534   26.46275
     C93    16.44331   18.79440   27.92300
     C94    17.61834   20.33505   26.62572
     H95    15.51765   18.31207   28.20034
     C96    17.57434   18.26010   28.55630
     C97    18.77717   19.92856   27.28750
     C98    18.78112   18.91376   28.30687
     C99    23.30920   17.87380   27.57859
    N100    21.09867   18.43027   28.13507
    C101    20.00761   18.52635   28.94201
    H102    14.59903   19.77497   26.02802
    H103    17.63080   17.40466   29.21315
    H104    26.93943   17.84745   25.15804
    N105    22.29199   18.00060   28.48819
    H106    19.71667   20.35271   26.96523
    C107    27.86220   17.35801   25.43251
    N108    24.42793   17.28921   27.97535
    N109    25.46482   17.22063   27.11884
    H110    28.90946   18.03791   23.72922
    C111    29.04428   17.52688   24.67106
    C112    26.66069   16.71028   27.54715
    C113    27.87276   16.57596   26.59583
    H114    24.45160   17.12993   28.97243
    H115    19.80986   18.31198   29.99226
    H116    22.44978   17.77448   29.45982
    N117    30.14348   16.91002   24.97643
    C118    31.38345   17.02863   24.08744
    H119    26.83253   16.29665   28.54087
    C120    29.10430   15.91208   26.92752
    C121    30.13987   15.96820   26.01655
    H122    29.13994   15.21542   27.75201
    H123    31.07141   15.49107   26.28296
    H124    17.67785   21.05911   25.82659
    C125    30.47804   17.00636   21.27637
    C126    31.55898   16.05552   20.79511
    H127    29.74853   17.20536   20.49132
    H128    29.95509   16.39238   22.00962
    H129    31.20314   15.02644   20.84469
    H130    32.53312   16.17921   21.26827
    H131    31.67738   16.22316   19.72461
    C132    32.27275   21.73387   20.79873
    C133    31.14399   22.73073   20.45548
    H134    33.08499   22.26461   21.29540
    H135    32.73251   21.28610   19.91769
    H136    31.50157   23.43996   19.70900
    H137    30.71304   23.20295   21.33832
    H138    30.34230   22.27051   19.87791
    C139    32.28808   19.53087   25.34805
    C140    31.21240   20.10573   26.25248
    H141    32.64033   18.54526   25.65235
    H142    33.25658   20.00711   25.50076
    H143    31.47681   19.99904   27.30453
    H144    30.27432   19.59025   26.04660
    H145    31.05233   21.17122   26.08755
    C146    14.62564   20.90385   23.92245
    C147    15.70680   19.82421   23.61779
    H148    14.36610   21.22623   22.91408
    H149    13.66126   20.48497   24.20991
    H150    16.63643   20.23242   23.22124
    H151    15.34166   19.08148   22.90847
    H152    15.84948   19.16709   24.47566
    C153    15.61940   25.91276   24.76223
    C154    14.47410   26.81011   24.93319
    H155    15.86138   25.86947   23.70030
    H156    16.52358   26.36320   25.17171
    H157    13.80501   26.65665   24.08651
    H158    14.81056   27.84469   24.86583
    H159    13.83776   26.64982   25.80352
    C160    15.44184   22.71351   28.67730
    C161    14.01084   22.77389   29.31201
    H162    15.87406   21.72227   28.81415
    H163    16.11214   23.36440   29.23867
    H164    14.11912   22.62273   30.38604
    H165    13.38171   21.95607   28.96064
    H166    13.54282   23.75312   29.21119
    H167    32.34276   16.87079   24.58030
    H168    31.34005   16.13031   23.47162
      H1    22.40836   19.86857   20.72249
      O2    24.57881   19.06184   22.95981
      C3    22.90900   20.15365   21.64779
      C4    23.92611   19.06214   21.96799
      H5    22.13875   20.23396   22.41485
      O6    24.05568   18.09572   21.20308
      H7    23.50735   21.05949   21.55022

