189
frame 481 | Written by MDAnalysis XYZWriter (release 1.1.1)
      C1    25.46912   21.80062   18.47948
      O2    25.20602   22.93145   18.94193
      N3    24.48206   20.93594   18.11243
      N4    26.76997   21.38617   18.44836
      N5    23.16875   21.17777   18.39245
      C6    22.30917   20.18209   18.22392
      C7    20.85133   20.30581   18.54647
      H8    22.58910   19.13823   18.08223
      H9    24.74471   19.99510   17.85567
     N10    27.76374   22.20500   18.71167
     H11    26.90565   20.41765   18.19604
     C12    28.93913   21.66395   18.99767
     C13    30.03608   22.46173   19.63389
     H14    29.14531   20.59631   18.92187
     C15    20.42673   21.20441   19.49867
     C16    19.92325   19.44509   17.86187
     C17    19.06346   21.13755   19.87592
     N18    18.25412   20.18888   19.40170
     C19    18.58527   19.38218   18.31679
     H20    21.10427   21.95292   19.88218
     H21    18.75865   21.90420   20.57287
     H22    20.25798   18.78739   17.07334
     H23    17.84981   18.76714   17.81956
     C24    16.83404   20.13833   19.82612
     C25    16.42183   21.17178   20.85402
     H26    16.55678   19.17608   20.25660
     H27    16.21881   20.20139   18.92855
     C28    16.46492   20.79553   22.26041
     C29    15.84415   21.61461   23.23090
     C30    15.41445   22.92049   22.80587
     C31    15.42424   23.31302   21.42791
     C32    15.90254   22.41459   20.42877
     C33    31.32895   22.34875   19.11523
     C34    29.76693   23.35781   20.66751
     C35    30.79389   24.11770   21.19807
     C36    32.29026   23.25871   19.60261
     N37    32.05984   24.05181   20.71929
     H38    31.62618   21.73979   18.27427
     H39    33.30286   23.19539   19.23244
     H40    28.75586   23.40440   21.04430
     H41    30.41093   24.84721   21.89632
     C42    33.14499   24.71729   21.49510
     C43    32.74070   25.93259   22.38667
     H44    34.06116   24.97320   20.96291
     H45    33.47852   23.89772   22.13162
     C46    32.63496   25.76394   23.78163
     C47    32.20605   26.87986   24.65342
     C48    32.00205   28.14831   24.09438
     C49    31.99829   28.26727   22.68067
     C50    32.40795   27.18464   21.82622
     H51    14.21263   25.05055   21.63738
     C52    15.00933   24.71761   20.97216
     N53    16.12278   25.71202   21.00001
     O54    22.98676   27.82929   21.29223
     C55    15.78691   26.97991   20.73739
     C56    17.38515   25.35300   21.43550
     H57    14.82864   27.17229   20.27792
     C58    16.69628   28.03970   20.93240
     C59    18.30136   26.41820   21.70285
     C60    17.97762   27.75819   21.45944
     C61    22.65891   28.98220   21.46337
     N62    20.31969   28.47070   21.50826
     C63    19.05274   28.84404   21.67331
     H64    14.52892   24.78095   19.99579
     H65    16.46288   29.03224   20.57633
     H66    27.05249   28.34151   21.98108
     N67    21.33300   29.35768   21.68843
     H68    19.26688   26.06292   22.03139
     C69    27.73643   29.16971   22.09381
     N70    23.61744   29.91889   21.70151
     N71    24.94113   29.65727   21.74979
     H72    29.41207   27.83251   22.34873
     C73    29.11448   28.86424   22.23307
     C74    25.72572   30.69002   22.09643
     H75    32.09940   30.41595   22.50569
     C76    27.22861   30.48189   22.08406
     H77    23.33785   30.88412   21.80282
     H78    18.66763   29.83078   21.93049
     H79    21.03148   30.32108   21.65610
     N80    30.00930   29.83588   22.18435
     C81    31.48681   29.59295   22.13757
     H82    25.45888   31.73453   22.25737
     C83    28.22075   31.48516   21.96620
     C84    29.58412   31.12565   22.10921
     H85    27.93988   32.52556   21.89488
     H86    30.25709   31.94692   21.91171
     H87    31.64877   29.64559   21.06096
     H88    17.65729   24.36728   21.78290
     H89    14.84398   21.64075   25.12492
     C90    15.72842   21.18075   24.68415
     N91    16.96481   21.45543   25.42746
     O92    23.94840   23.54422   25.86425
     C93    17.12463   20.88832   26.61280
     C94    18.00622   22.11045   24.87387
     H95    16.27714   20.48277   27.14544
     C96    18.38645   20.90663   27.27785
     C97    19.26232   22.25041   25.51926
     C98    19.41032   21.78233   26.78856
     C99    23.89338   23.44972   27.09465
    N100    21.74844   22.61316   26.94192
    C101    20.63696   22.06048   27.55310
    H102    15.41752   20.13730   24.73583
    H103    18.42143   20.46284   28.26184
    H104    27.74861   24.81316   25.46033
    N105    22.81791   22.86804   27.65332
    H106    20.04866   22.89761   25.15981
    C107    28.42184   25.28082   26.16350
    N108    24.87376   23.91949   27.86337
    N109    25.91029   24.50089   27.32680
    H110    29.98678   25.64980   24.69166
    C111    29.66347   25.77620   25.71435
    C112    26.88920   24.91177   28.13046
    C113    28.16342   25.40499   27.55009
    H114    24.92118   23.70095   28.84830
    H115    20.61371   21.79600   28.61027
    H116    22.63666   22.81572   28.64555
    N117    30.62056   26.21069   26.52954
    C118    31.96137   26.59247   26.12102
    H119    27.00528   24.64881   29.18188
    C120    29.11434   25.96892   28.43421
    C121    30.36831   26.28102   27.90258
    H122    28.92344   26.15825   29.48021
    H123    31.18831   26.74230   28.43287
    H124    17.82588   22.67198   23.96913
    C125    32.75795   24.36287   24.34849
    C126    34.11278   24.02839   24.98288
    H127    32.41430   23.57550   23.67764
    H128    31.99067   24.28551   25.11881
    H129    34.21645   24.66966   25.85817
    H130    34.97332   24.17393   24.32990
    H131    34.08469   23.03358   25.42747
    C132    32.55302   27.44610   20.33225
    C133    31.21603   27.36315   19.66868
    H134    32.98237   28.41382   20.07284
    H135    33.27728   26.74097   19.92440
    H136    31.13683   28.03408   18.81330
    H137    30.46067   27.79998   20.32193
    H138    30.86621   26.34802   19.48093
    C139    31.81143   29.24804   25.05459
    C140    30.37510   29.44176   25.67947
    H141    32.53320   29.16166   25.86681
    H142    32.01064   30.17654   24.51953
    H143    29.59241   29.54701   24.92819
    H144    30.33414   30.23970   26.42090
    H145    29.96113   28.57061   26.18724
    C146    17.07501   19.48867   22.64731
    C147    18.55774   19.46245   22.44068
    H148    16.59326   18.60204   22.23512
    H149    16.96686   19.44718   23.73114
    H150    18.80629   18.76522   23.24081
    H151    19.05296   20.42463   22.57138
    H152    18.84969   19.01368   21.49122
    C153    15.91016   22.82850   19.00239
    C154    14.55951   22.66192   18.41045
    H155    16.54521   22.15265   18.42965
    H156    16.16061   23.87516   18.82954
    H157    13.75160   23.14137   18.96319
    H158    14.40922   21.58615   18.31976
    H159    14.63957   23.02083   17.38436
    C160    14.90150   23.84734   23.85355
    C161    13.34876   23.70492   23.91392
    H162    15.28510   23.75228   24.86938
    H163    15.18772   24.85821   23.56317
    H164    12.90561   24.64056   24.25494
    H165    13.10361   23.00782   24.71521
    H166    12.88098   23.40010   22.97777
    H167    32.39899   27.35585   26.76433
    H168    32.60577   25.79073   26.48165
      H1    24.22587   20.75263   25.86828
      O2    27.07723   19.93690   25.60809
      C3    24.92312   20.21468   26.51059
      C4    25.91510   19.48332   25.63552
      H5    24.33212   19.56956   27.16070
      O6    25.57596   18.38407   25.19415
      H7    25.39875   20.84274   27.26386
      H1    25.78086   20.24031   21.19349
      O2    24.77501   22.76706   22.39372
      C3    25.10706   20.49619   22.01119
      C4    25.65466   21.89121   22.29853
      H5    25.29892   19.97810   22.95080
      O6    26.89396   22.04272   22.46538
      H7    24.04186   20.55844   21.78852
      H1    22.90452   17.97497   20.23748
      O2    22.39202   18.01332   23.45663
      C3    22.33855   17.97331   21.16904
      C4    22.93062   17.47741   22.42580
      H5    21.42035   17.38634   21.14737
      O6    24.00430   16.76146   22.47601
      H7    21.88469   18.94910   21.34210

