189
frame 541 | Written by MDAnalysis XYZWriter (release 1.1.1)
      C1    26.65952   22.28030   18.51093
      O2    26.14691   23.34282   18.92520
      N3    25.81261   21.43312   17.79366
      N4    27.97348   22.00469   18.50265
      N5    24.51584   21.47617   17.88077
      C6    23.78583   20.48482   17.37171
      C7    22.35083   20.49779   17.70766
      H8    24.11236   19.64447   16.75910
      H9    26.20684   20.58010   17.42346
     N10    28.80608   22.55196   19.35620
     H11    28.25865   21.10351   18.14678
     C12    30.09924   22.29034   19.21231
     C13    31.05399   22.79633   20.26973
     H14    30.53974   21.71215   18.40005
     C15    21.85607   21.06083   18.90550
     C16    21.40438   19.96653   16.82786
     C17    20.48792   20.98869   19.25694
     N18    19.59995   20.49376   18.34688
     C19    19.99689   19.94683   17.19762
     H20    22.50109   21.43661   19.68597
     H21    20.12012   21.29835   20.22402
     H22    21.68062   19.46778   15.91061
     H23    19.29891   19.34906   16.63026
     C24    18.15509   20.29586   18.71725
     C25    17.61387   21.16139   19.85258
     H26    18.05874   19.22802   18.91355
     H27    17.57654   20.54537   17.82780
     C28    17.31871   20.58822   21.13606
     C29    16.99026   21.48898   22.20264
     C30    16.74386   22.83259   21.90589
     C31    17.01903   23.40657   20.62807
     C32    17.39011   22.53497   19.59010
     C33    32.37043   23.05385   19.82118
     C34    30.70461   23.06756   21.55314
     C35    31.59283   23.68222   22.41818
     C36    33.28613   23.61500   20.74736
     N37    32.86477   23.92157   21.97307
     H38    32.65270   23.05704   18.77872
     H39    34.28384   23.90427   20.45191
     H40    29.71912   22.82322   21.92126
     H41    31.23649   23.88482   23.41736
     C42    33.90944   24.47666   22.92610
     C43    33.46263   25.19330   24.18139
     H44    34.53192   25.19322   22.39022
     H45    34.65601   23.71150   23.13886
     C46    33.41032   24.47452   25.41035
     C47    33.08582   25.11971   26.63577
     C48    32.91499   26.48882   26.73860
     C49    32.93546   27.26384   25.53711
     C50    33.15117   26.61822   24.25984
     H51    15.86901   25.32310   20.77517
     C52    16.78474   24.89097   20.37168
     N53    17.92162   25.83509   20.74999
     O54    24.86910   27.80457   21.49672
     C55    17.70458   27.17544   20.81285
     C56    19.03632   25.29686   21.28178
     H57    16.77011   27.63402   20.52498
     C58    18.67048   28.04710   21.27689
     C59    20.05822   26.15838   21.81427
     C60    19.88683   27.50223   21.81709
     C61    24.48999   28.91566   21.97433
     N62    22.24763   28.34987   21.72119
     C63    21.00994   28.38701   22.29035
     H64    16.70791   25.13275   19.31162
     H65    18.42384   29.09819   21.24907
     H66    28.34790   27.68190   24.15401
     N67    23.21742   29.19727   22.15368
     H68    20.98755   25.72943   22.15886
     C69    29.08503   28.47067   24.18357
     N70    25.35531   29.82410   22.41926
     N71    26.50605   29.37619   22.86155
     H72    30.55088   27.13056   25.02955
     C73    30.36799   28.15136   24.72801
     C74    27.53178   30.21881   23.16336
     H75    32.49967   29.18730   26.50103
     C76    28.85817   29.75459   23.69977
     H77    25.12604   30.75588   22.73441
     H78    20.61516   28.89898   23.16792
     H79    22.91365   30.09064   22.51382
     N80    31.37055   29.05231   24.78931
     C81    32.58855   28.75125   25.50601
     H82    27.45150   31.30438   23.21987
     C83    29.92692   30.59723   23.66503
     C84    31.16073   30.27273   24.28220
     H85    29.75795   31.57351   23.23524
     H86    31.91738   31.04324   24.26783
     H87    33.45032   29.29482   25.11872
     H88    19.25352   24.23937   21.31261
     H89    15.72517   21.28845   23.91490
     C90    16.73245   20.97806   23.63715
     N91    17.77630   21.35894   24.64031
     O92    24.70249   22.62956   26.53855
     C93    17.50305   21.03549   25.97593
     C94    19.04905   21.83341   24.30227
     H95    16.60579   20.51053   26.26873
     C96    18.51471   21.19927   26.95351
     C97    20.08281   22.01330   25.25729
     C98    19.81409   21.65167   26.61211
     C99    24.42952   22.17841   27.64914
    N100    22.12792   22.13343   27.20794
    C101    20.96407   21.63846   27.56432
    H102    16.67662   19.88991   23.60685
    H103    18.33690   21.00989   28.00180
    H104    28.36001   23.65502   26.95729
    N105    23.19157   21.83798   27.97976
    H106    21.03861   22.44334   24.99670
    C107    29.16869   23.40241   27.62709
    N108    25.43246   21.77088   28.54043
    N109    26.60017   22.29973   28.34061
    H110    30.46086   24.56226   26.43245
    C111    30.42689   23.91510   27.29641
    C112    27.66125   21.88209   29.00542
    C113    28.98922   22.51163   28.68468
    H114    25.19430   21.34261   29.42359
    H115    20.81196   21.05214   28.47051
    H116    22.97954   21.39339   28.86151
    N117    31.50667   23.55375   28.04021
    C118    32.86753   24.22590   27.86010
    H119    27.62377   21.31825   29.93751
    C120    30.12248   22.25375   29.42832
    C121    31.40606   22.70061   29.05990
    H122    30.17417   21.60922   30.29337
    H123    32.24575   22.37638   29.65672
    H124    19.33502   22.02733   23.27903
    C125    33.48396   23.00143   25.34234
    C126    34.86486   22.34817   25.58775
    H127    33.12024   22.65091   24.37645
    H128    32.72134   22.50370   25.94132
    H129    35.58297   22.44143   24.77306
    H130    34.72136   21.28643   25.78832
    H131    35.47424   22.69343   26.42295
    C132    33.25511   27.42212   23.04591
    C133    32.01062   27.36483   22.14292
    H134    33.50944   28.45878   23.26671
    H135    34.09744   27.06188   22.45531
    H136    32.08534   27.94864   21.22548
    H137    31.14671   27.92220   22.50501
    H138    31.60647   26.37525   21.92963
    C139    32.65990   27.16926   28.06898
    C140    31.20963   27.07909   28.60436
    H141    33.31502   26.84209   28.87638
    H142    32.94516   28.22112   28.08651
    H143    30.47484   27.57642   27.97123
    H144    31.07015   27.61605   29.54262
    H145    30.89697   26.04217   28.72741
    C146    17.40458   19.09355   21.32841
    C147    18.82197   18.81020   21.88261
    H148    17.14033   18.51390   20.44395
    H149    16.68029   18.74656   22.06537
    H150    19.03374   19.38038   22.78713
    H151    19.56093   18.95467   21.09448
    H152    18.86449   17.75585   22.15579
    C153    17.57108   23.04019   18.15275
    C154    16.21380   23.25843   17.53588
    H155    18.20318   22.39963   17.53774
    H156    18.14470   23.96134   18.25539
    H157    15.68811   22.30928   17.43161
    H158    16.29490   23.74028   16.56153
    H159    15.51833   23.95065   18.01048
    C160    16.36561   23.79778   23.04054
    C161    14.83761   23.83897   23.16674
    H162    16.89801   23.45684   23.92847
    H163    16.71492   24.81120   22.84292
    H164    14.42134   22.87149   23.44748
    H165    14.36078   24.02094   22.20361
    H166    14.44857   24.52079   23.92297
    H167    33.04158   24.73199   28.80967
    H168    33.66322   23.48192   27.82164
      H1    26.69992   20.25863   25.89197
      O2    28.31661   18.67023   24.56933
      C3    26.24572   19.42841   25.35111
      C4    27.13299   18.36995   24.82251
      H5    25.65079   19.80911   24.52091
      O6    26.75550   17.19793   24.68400
      H7    25.48611   19.02323   26.01963
      H1    25.96467   19.63599   21.56669
      O2    25.54003   22.46996   22.50047
      C3    26.38301   20.59532   21.26209
      C4    26.46071   21.60756   22.35298
      H5    25.71978   20.94570   20.47124
      O6    27.44345   21.75278   23.10262
      H7    27.30040   20.33974   20.73183
      H1    22.56405   19.54839   22.06740
      O2    23.33807   17.47350   23.24437
      C3    23.19156   18.98402   21.37759
      C4    23.79353   17.79364   22.11740
      H5    23.77379   19.75106   20.86695
      O6    24.79456   17.24174   21.62981
      H7    22.45362   18.57871   20.68530

