189
frame 939 | Written by MDAnalysis XYZWriter (release 1.1.1)
      C1    30.42297   21.30089   20.39847
      O2    30.13265   22.46983   20.71477
      N3    29.50591   20.42669   20.06579
      N4    31.62766   20.76911   20.14752
      N5    28.22114   20.72441   20.16788
      C6    27.29879   19.77125   19.95211
      C7    25.91739   19.98695   20.31194
      H8    27.55235   18.76862   19.60781
      H9    29.73017   19.56614   19.58698
     N10    32.68443   21.31501   20.71247
     H11    31.74506   19.83130   19.79141
     C12    33.90778   20.78580   20.65825
     C13    35.08453   21.35869   21.34932
     H14    34.21162   19.82237   20.24887
     C15    25.53985   21.00852   21.15419
     C16    24.86045   19.33294   19.65774
     C17    24.13943   21.33411   21.38278
     N18    23.18476   20.65078   20.77152
     C19    23.46894   19.69137   19.89936
     H20    26.21744   21.57169   21.77879
     H21    23.90078   21.99867   22.19998
     H22    25.07217   18.54398   18.95127
     H23    22.66016   19.15646   19.42382
     C24    21.74550   20.83114   21.05795
     C25    21.37908   22.01343   21.98827
     H26    21.12794   19.97276   21.32234
     H27    21.32857   21.02506   20.06968
     C28    21.23000   21.77901   23.43768
     C29    20.95553   22.91389   24.26932
     C30    20.74940   24.21506   23.68667
     C31    21.02718   24.36293   22.30550
     C32    21.32785   23.27067   21.45003
     C33    36.42752   20.88321   21.14587
     C34    34.81466   22.16636   22.46944
     C35    35.85706   22.55449   23.28891
     C36    37.44056   21.41782   22.03685
     N37    37.18234   22.24250   23.04554
     H38    36.72731   20.26681   20.31126
     H39    38.47029   21.21507   21.78202
     H40    33.79614   22.39126   22.74951
     H41    35.70457   23.15659   24.17244
     C42    38.35201   22.86210   23.73807
     C43    38.06036   24.23180   24.29459
     H44    39.21434   22.75760   23.07961
     H45    38.77018   22.19306   24.49015
     C46    37.73516   24.43554   25.63548
     C47    37.55485   25.73038   26.12931
     C48    37.60619   26.84400   25.27893
     C49    37.85960   26.66800   23.87095
     C50    38.15532   25.38490   23.45115
     H51    20.07257   26.12868   22.15479
     C52    20.99736   25.70959   21.75826
     N53    22.27222   26.46800   21.94219
     O54    29.41277   27.51955   23.55859
     C55    22.39223   27.76019   21.54496
     C56    23.38285   25.83430   22.43342
     H57    21.53020   28.14260   21.01859
     C58    23.41118   28.65320   21.87852
     C59    24.48064   26.63483   22.80962
     C60    24.49652   28.00920   22.51871
     C61    29.17887   28.58764   23.02057
     N62    26.87466   28.38397   22.97294
     C63    25.60256   28.86187   23.00001
     H64    20.75747   25.68699   20.69523
     H65    23.40018   29.68203   21.55020
     H66    33.06380   27.29724   23.04975
     N67    27.91703   29.17501   22.96277
     H68    25.25570   26.11716   23.35525
     C69    33.89390   27.94887   22.82016
     N70    30.11220   29.43300   22.67994
     N71    31.33744   29.02477   22.79204
     H72    35.33921   26.57024   23.56868
     C73    35.21352   27.44917   22.95379
     C74    32.26682   29.68324   22.08968
     H75    38.28201   28.67643   23.13381
     C76    33.67200   29.14486   22.17917
     H77    29.97172   30.40300   22.43612
     H78    25.47795   29.91691   22.75615
     H79    27.85299   30.12270   22.61943
     N80    36.30684   28.14316   22.53955
     C81    37.71727   27.79649   22.82580
     H82    32.17051   30.56244   21.45264
     C83    34.77679   29.82424   21.72620
     C84    36.10130   29.35527   21.92223
     H85    34.68863   30.83229   21.34878
     H86    36.96088   29.91990   21.59249
     H87    38.18230   27.65650   21.84996
     H88    23.41994   24.77584   22.64478
     H89    20.12182   23.47840   26.18822
     C90    20.82191   22.77962   25.73032
     N91    22.02684   22.88865   26.57639
     O92    28.82731   24.77137   27.69587
     C93    21.89403   22.55147   27.88602
     C94    23.16833   23.43429   26.07369
     H95    21.01655   22.03536   28.24665
     C96    23.04422   22.73311   28.67151
     C97    24.31269   23.65139   26.85004
     C98    24.23336   23.27118   28.18156
     C99    28.82910   24.14789   28.74093
    N100    26.56300   23.85697   28.58646
    C101    25.44964   23.23859   29.03533
    H102    20.39198   21.78550   25.85276
    H103    22.93579   22.33885   29.67111
    H104    33.08181   23.96948   27.16459
    N105    27.69952   23.60591   29.19384
    H106    25.25064   24.01760   26.45947
    C107    33.77607   24.49608   27.80263
    N108    29.91750   23.94622   29.51365
    N109    31.07554   24.37389   29.09454
    H110    35.14513   24.89089   26.22386
    C111    34.90882   25.09017   27.25868
    C112    32.20353   24.12338   29.80414
    C113    33.47876   24.56319   29.17215
    H114    29.83078   23.63337   30.47006
    H115    25.43435   22.41394   29.74793
    H116    27.67512   23.10195   30.06879
    N117    35.83343   25.59988   28.06781
    C118    37.26101   25.90799   27.62452
    H119    32.28360   23.54613   30.72527
    C120    34.47871   25.11083   29.98569
    C121    35.63442   25.63078   29.36625
    H122    34.31730   25.24759   31.04477
    H123    36.40920   26.04997   29.99107
    H124    23.27940   23.76095   25.05028
    C125    37.70889   23.21240   26.54159
    C126    39.01431   22.78134   27.21186
    H127    37.18817   22.39361   26.04507
    H128    37.02953   23.34318   27.38389
    H129    39.70159   22.51398   26.40919
    H130    38.84385   21.88045   27.80129
    H131    39.48915   23.60073   27.75150
    C132    38.50185   25.16130   21.99075
    C133    37.43779   25.20432   20.93916
    H134    39.25634   25.92733   21.81168
    H135    38.95289   24.17607   21.87247
    H136    36.91492   26.16048   20.96101
    H137    36.69099   24.41088   20.96828
    H138    37.94847   25.16218   19.97712
    C139    37.37223   28.24644   25.81359
    C140    35.90442   28.54510   26.13492
    H141    37.90391   28.40383   26.75202
    H142    37.74189   28.98620   25.10351
    H143    35.37978   27.89540   26.83544
    H144    35.25631   28.48415   25.26065
    H145    35.85603   29.59160   26.43593
    C146    21.41613   20.31747   23.96965
    C147    22.85532   20.16935   24.53739
    H148    21.17076   19.51984   23.26845
    H149    20.66125   20.13229   24.73383
    H150    23.04716   20.64492   25.49923
    H151    23.64164   20.57405   23.90019
    H152    23.18657   19.16526   24.80231
    C153    21.58535   23.53808   19.94372
    C154    20.29350   23.73139   19.05622
    H155    22.12588   22.74583   19.42578
    H156    22.19401   24.42414   19.76334
    H157    19.58334   22.92242   19.22749
    H158    20.48459   23.79984   17.98528
    H159    19.75940   24.63247   19.35770
    C160    20.43696   25.44933   24.59328
    C161    18.99695   25.90198   24.73597
    H162    20.96435   25.25859   25.52793
    H163    21.05726   26.29508   24.29657
    H164    18.66164   26.42164   23.83841
    H165    18.73014   26.59319   25.53543
    H166    18.39742   24.99400   24.80112
    H167    37.49838   26.89362   28.02488
    H168    37.96468   25.36356   28.25424
      H1    30.24326   21.57814   27.50875
      O2    31.99120   19.54788   26.95814
      C3    29.82753   20.57054   27.50494
      C4    30.85138   19.43233   27.41908
      H5    29.19755   20.50204   26.61806
      O6    30.41365   18.32796   27.80010
      H7    29.04015   20.50148   28.25552
      H1    29.68229   19.32661   22.58488
      O2    28.85687   21.53196   23.71029
      C3    30.36504   19.66982   23.36215
      C4    30.02200   21.05442   23.85984
      H5    31.39322   19.55934   23.01753
      O6    30.93375   21.87482   24.14698
      H7    30.14319   18.91697   24.11852
      H1    27.58880   19.34038   23.40039
      O2    26.83190   18.70104   26.37782
      C3    26.71613   19.27580   24.05029
      C4    27.30372   18.44301   25.24848
      H5    26.01927   18.75860   23.39074
      O6    27.96662   17.39191   24.98547
      H7    26.31984   20.27835   24.21135

