204
CAG cage3_my_charges.ff
C           -2.672113        8.613586       -6.157012
C           -3.699684        7.801835       -5.675793
C           -1.362592        8.403341       -5.737061
C           -1.069621        7.374651       -4.830637
C           -2.099762        6.583571       -4.322704
C           -3.413422        6.785866       -4.757783
H           -4.725859        8.002530       -5.990652
H           -2.897551        9.419997       -6.854211
H           -0.549781        9.033767       -6.099339
H           -1.936571        5.822262       -3.557658
C            0.363696        7.223535       -4.425330
O            1.186011        8.099122       -4.534911
N            0.706722        5.952056       -3.923635
N            1.896217        5.508341       -3.532366
C            2.938894        6.269057       -3.450411
C           -4.454398        5.905673       -4.147208
O           -4.300150        5.334106       -3.090108
N           -5.612504        5.723285       -4.925367
N           -6.552403        4.798592       -4.689344
C           -6.851389        4.473855       -3.478591
C           -7.748651        3.335080       -3.292193
H           -6.438058        4.950412       -2.588974
C           -8.065093        2.906984       -1.989056
C           -8.680020        1.689738       -1.795819
N           -9.011520        0.900815       -2.841615
C           -8.848608        1.355086       -4.109573
C           -8.229678        2.558909       -4.363877
H           -9.201845        0.701060       -4.907655
H           -8.063466        2.879717       -5.391964
C           -9.509591       -0.483022       -2.590203
C            4.178780        5.623063       -3.022910
H            2.957080        7.331942       -3.692690
C            4.257687        4.250187       -2.706641
C            5.365311        6.372479       -2.933324
C            6.546018        5.759082       -2.569955
N            6.591724        4.439016       -2.278112
C            5.461405        3.694195       -2.342832
H            3.364414        3.631677       -2.767888
H            5.577618        2.639030       -2.095186
C            7.907628        3.786234       -2.019386
H            0.018164        5.211793       -3.995758
H           -5.538014        5.945661       -5.914972
C            7.940307        2.790298       -0.869957
H            8.620541        4.598190       -1.832437
H            8.206112        3.323241       -2.963679
C            8.294702        1.446577       -1.131739
C            8.541178        0.577758       -0.044898
C            8.366953        1.024739        1.280758
C            7.970169        2.356282        1.523462
C            7.788419        3.259011        0.452862
C           -8.648695       -1.258399       -1.599786
H           -9.531694       -0.985449       -3.564183
C           -7.323111       -1.604443       -1.947726
C           -6.548859       -2.348402       -1.033735
C           -7.107763       -2.819923        0.170310
C           -8.440421       -2.491853        0.490569
C           -9.202751       -1.660521       -0.363403
C            7.481123        4.721637        0.716683
C            6.026713        4.988569        1.117941
H            8.158093        5.111726        1.489097
H            7.720163        5.323390       -0.166170
H            5.770026        4.503569        2.071850
H            5.326169        4.615677        0.354258
H            5.856041        6.065863        1.244602
C            8.521933        0.979969       -2.559536
C            9.936239        1.288272       -3.073245
H            7.773955        1.433010       -3.226191
H            8.338038       -0.099336       -2.640948
H           10.154627        2.365510       -3.047200
H           10.056305        0.941721       -4.107677
H           10.704581        0.798327       -2.457698
C            8.706997        0.116641        2.447684
C           10.175885        0.217325        2.894610
H            8.464077       -0.922456        2.190836
H            8.054289        0.342974        3.302807
H           10.881251       -0.048487        2.094465
H           10.363253       -0.450886        3.745581
H           10.443660        1.236932        3.205550
C           -6.737046       -1.185174       -3.287842
C           -5.896366        0.101024       -3.281890
H           -7.545901       -1.077061       -4.021453
H           -6.126537       -2.007431       -3.688636
H           -6.432145        0.942305       -2.827339
H           -5.629193        0.378816       -4.310656
H           -4.959408       -0.007267       -2.717663
C           -6.258334       -3.663048        1.103072
C           -5.373826       -2.863172        2.072257
H           -6.899493       -4.337817        1.684354
H           -5.636047       -4.343435        0.507355
H           -4.609093       -2.262647        1.559012
H           -4.852416       -3.543435        2.760404
H           -5.958305       -2.154176        2.672099
C          -10.618950       -1.261422        0.013119
C          -11.671053       -2.253099       -0.501828
H          -10.842426       -0.253577       -0.363292
H          -10.710592       -1.161583        1.103271
H          -11.639788       -2.338072       -1.598001
H          -12.679665       -1.932768       -0.211539
H          -11.501365       -3.262098       -0.098053
H          -10.548215       -0.402521       -2.258256
H            7.490127        6.302745       -2.517983
H            5.376554        7.437884       -3.165383
H           -8.882059        1.282851       -0.805479
H           -7.783123        3.503447       -1.121648
C            7.949997        2.861543        2.953213
N            6.740992        2.545582        3.780787
C            6.816438        2.824306        5.104657
C            5.586826        2.074944        3.255152
C            5.731618        2.656558        5.935865
C            4.508675        2.195340        5.414229
H            7.775088        3.199155        5.466017
C            4.468932        1.891475        4.039304
N            2.236342        1.717379        5.744090
H            5.603431        1.866532        2.185990
C            3.348589        2.076121        6.296679
H            5.836200        2.900631        6.993477
H            3.546153        1.522352        3.596093
H            0.310833        1.379167        5.828422
N            1.097627        1.609316        6.423421
H            3.470394        2.316746        7.352846
H           -8.831882       -0.608299        2.453755
C            0.833691        1.979768        7.755894
H           -7.617492        0.336504        4.443294
O            1.705536        2.403981        8.474155
C           -8.389806       -1.244673        3.219873
H           -5.295689        1.598096        7.461132
C           -7.717814       -0.739619        4.308098
C           -0.597444        1.856445        8.180903
H           -1.289616        0.411660        6.687976
C           -1.540534        1.061419        7.528835
N           -5.156110        0.611309        7.258216
N           -6.107278        0.127581        6.438336
N           -8.492469       -2.580835        3.012517
C           -0.968954        2.583920        9.320600
C           -7.093312       -1.621380        5.212783
H           -0.210386        3.172715        9.837222
C           -2.864330        1.044813        7.978481
C           -6.160564       -1.141968        6.233877
C           -3.817132        0.170927        7.230832
C           -2.281023        2.545985        9.780946
C           -8.020698       -3.445063        3.937678
C           -3.235840        1.787377        9.104248
C           -7.316924       -2.997082        5.037744
H           -5.537598       -1.876988        6.748386
H           -2.561141        3.102648       10.674776
O           -3.476474       -0.799599        6.593452
H           -8.198602       -4.504751        3.751667
H           -4.257003        1.744785        9.488820
H           -6.917825       -3.727984        5.741653
C           -9.084363       -3.084207        1.738855
C            9.259021       -0.745239       -0.293919
N            8.523107       -2.036781       -0.137909
C            9.014805       -2.965456        0.717810
C            7.501221       -2.372480       -0.966298
C            8.503829       -4.240290        0.767968
C            7.478970       -4.633995       -0.116928
H            9.853598       -2.656466        1.341944
C            6.970573       -3.643117       -0.986619
N            6.318382       -6.529392       -1.036879
H            7.146024       -1.582234       -1.626945
C            7.062749       -6.019591       -0.104171
H            8.945046       -4.950896        1.467163
H            6.177164       -3.887194       -1.691696
H            6.634464       -8.355725       -0.233376
N            6.103839       -7.829822       -0.941575
H            7.488690       -6.653015        0.686397
H           -3.281632       -3.567328        0.251798
C            5.847498       -8.680461       -2.068306
H           -1.557694       -5.247552       -0.411641
O            6.382804       -9.752301       -2.047258
C           -3.333215       -4.095598       -0.699519
H            1.433755       -7.300920       -1.714520
C           -2.389580       -5.015315       -1.073766
C            4.916325       -8.267578       -3.155192
H            3.440870       -7.375783       -1.880361
C            3.667584       -7.697459       -2.899406
N            0.818435       -7.078097       -2.488751
N           -0.329611       -6.541430       -2.095989
N           -4.357552       -3.743868       -1.521733
C            5.247404       -8.710590       -4.442086
C           -2.442753       -5.588033       -2.361242
H            6.205826       -9.206227       -4.601075
C            2.737281       -7.598603       -3.943917
C           -1.317147       -6.336285       -2.909354
C            1.325940       -7.129553       -3.801465
C            4.351260       -8.539142       -5.491318
C           -4.515180       -4.391979       -2.700407
C            3.096507       -7.995123       -5.239465
C           -3.587622       -5.314633       -3.137942
H           -1.336916       -6.629788       -3.958412
H            4.614174       -8.868444       -6.496111
O            0.632350       -6.814032       -4.739819
H           -5.383334       -4.107811       -3.295969
H            2.359149       -7.895821       -6.036030
H           -3.727048       -5.781082       -4.113620
C           -5.047940       -2.445010       -1.264826
H           -8.964738       -4.173814        1.752520
H            8.046046        3.951181        2.984365
H           -4.536513       -2.030923       -0.390436
H            9.689874       -0.766396       -1.299651
H           10.103595       -0.820282        0.397645
H            8.798735        2.449425        3.509804
H          -10.159503       -2.888346        1.777860
H           -4.759977       -1.814862       -2.107890
